.SUBCKT HIO_BUF PIN CODIN COOEB VCCN VSSN VSS VCC VREF
+ RPCDP7 RPCDP6 RPCDP5 RPCDP4 RPCDP3 RPCDP2 RPCDP1 RPCDP0
+ RPCDN7 RPCDN6 RPCDN5 RPCDN4 RPCDN3 RPCDN2 RPCDN1 RPCDN0
+ RPCDNEXTRA RPDLY RNDLY RPCI RPULLUP RPCDSR1 RPCDSR0 RAMBH ROPDRAIN
.PROT freelib
y
\$4:=#y%k[F$+G/+910
L
+*+:y$av. +196i[y*+:/z
P6=#52kpiQ=>w;]> 6=#+Y
\$J$8*/O]+JU7'T%%$J$X8
y2ux36sdTGu!2:.G;2ux:l
+*i:y$av. i196i[y*i:/z
P6<#52kpiQ<>w;]> 6<#+Y
\$y$8*/O]+yU7'T%%$y$X8
y2$x36sdTG$!2:.G;2$x:l
[
9 (96I[Y\-( X36SD (910
<#3W;]> 8l37:Y$AV#3W(6
-z57't%%[,5z#52KPz57JQ
6=u2:.g;+1u%$8*/o=u2P[
9 >96I[Y\-> X36SD >910
<#RW;]> 8lR7:Y$AV#RW(6
-z97't%%[,9z#52KPz97JQ
6=*2:.g;+1*%$8*/o=*2P[
8
y<y12:.G;<y+:U7'T%%03p7jq
6b6h$8*/ob6,7z#52KPU:=#+y
6
-3/9s=!*X3/9s=!*Xp/9#+Y
\6L<%S=!*12:,92 R8(p79k<910
<8%Y xi7T=#5F\7'34<p:\0U$X8
y;%2/\o#5o*3Ma79k<910
<8ZK r%7T7'k<XIJh0#Y<bX:l
+'=6%0;S7'=6%0;QJ>w6B02P[
95F\PUgb#5F\PUgl-7:\0U$X8
y;R- /13w;R- /1 P19-u/7JQ
6YipV9[+:YipV9[-( Xp/9#+Y
6
-/D#cv Y82X/\#0x67$+g/:/z
P6,\#0X67$.% !m73h79/%910
<#*!2%8U$#*!2%8u$+ZK:/z
P84t2;wxZhmS5!9-a[7JWY
\0> %d5:B;\jy'w6B02P[
9f<Ki]$-z/f4xp/9#+Y
\[//yC :=3uv4\w6k>2P[
9!2%7 :7$toxP3$+ZK:/z
P>md):o. t79k<910
</cda_X>hoh>:\0U$X8
q
6*[389%W9=6z/,#Y<bX:l
+\[;_p3<7\[;_P3<79k<910
<#gK;*[28SZ59=Xp/9#+Y
\.ajs[=2$xD[%G$f]+TU79k<910
<Mg2%5iI97T/ K=l6l57:\0U$X8
y0k7aG,*4:m>'[1%TGi!2<9zw(6
-d[%g$F]/2wSs/'r$,)z#Y<bX:l
+t/ k=L6J#V%X>;3. 319-u/7JQ
6M>'[1%tc9.AJS[=21%%$+ZK:/z
PWsS/'R$H$mG2%5IiQ=>w6B02P[
9v%x>;3.JW0K7Ag,*-( Xp/9#+Y
\.ajs[=+$xD[%G$f=+TU79k<910
<Mg2%5iz97T/ K=l8l57:\0U$X8
y0k7aG,\4:m>'[1% Gi!2<9zw(6
-d[%g$F=/2wSs/'r[,)z#Y<bX:l
+t/ k=L8J#V%X>;3# 319-u/7JQ
6M>'[1% c9.AJS[=+1%%$+ZK:/z
PWsS/'R[H$mG2%5IZQ=>w6B02P[
9v%x>;3#JW0K7Ag,\-( Xp/9#+Y
\>u:yC :k03v4\w6B02P[
9/<Y>lm7gK;Ki]$+ZK:/z
0
[.[;:]8z$x#pH/257b8
q
596(>M9)o9ipV9##+]4'$-$[T*60
<#D#Tj8($#D#Tj8($+g/:/z
P8yC[tm228yC[tm22<sGw(6
Z
[$*S$z9_Lh..[fm$2h#C2!5I2[m\;!X8D898
X!kxPr#0kOm4'4_jq
HW>2<K48 5gW_=F((6
B7[79b7.7;a5_UB)10
Z4gW6ve<J12'4/eKyx8
X!kxPr)l2'NlN71f((6
B7[79b7.7;a5_U7;a:L
[
,WaM72/Mg\9xX784s#'rXAw#D# W.z/[
+#%9-=DMsK%47Kyx8
X!kxPr)CV=38DxR:'7F.'-#*V;;x*$X8
X!kxPr)CV=38DxR:'7F.'-#*V;5]2Y7jq
HW>2<K4#0Qe7w-$[=3;dJ5\t0Y=;47qW(6
B7[79b7W.W'4TfRjLfDMs' = K$_#+y
e8a$+)o!mlFhm0!tqE>W%E*0X0J47Qw(6
B7[79b7W.W'4TfRjLfDMs'+']2y7JQ
HW>2<K4#0Qe7w-$[=3;dJ5Hv b K$_#+y
e8a$+)o!mlFhm0!tqE>W%E*0X0H7c#(:/z
-hs#yl38D-)CV[0_w'/t2=F.'/B-.:)x:l
[
gdm9e7w54#0-4\-)*!2Qiz.b3U#9129!],)(u(==uQ
y
kGs$)CV=38DxR:'7]4i-,\sC[Us$X#,h$vJ;><63$z
0
[<#O!MLfHM0!TQeI\.e=+C%hsj#O!MLfHM0!TQeI\.e=+C%hsh#IHUVY(h<63$Z
aA$#o!mlFhm0!tqEi\.E=+c%HSJ#+:2be5<U49! Tl
[
8
q
%nF2'4T'7W./\deO):Jv-)*;F<Ll86yW(9 -0x]4w*\h*[
8
/z[12'4t'7w./\DEo20$w3#/uC/12p7vXCs/)S0.PW6
Z
aA=3w7w.w'4tFrJlF6R*'f=dJ5XYw(9v-)=r4)*\H([
8
/3'xFhmEo!m3m 54Tr]lL86-P#(xFhmEo!m3m 54Tr]lL86-u(/xsz=jJM2257i8
/z[U2'4t'7w./\DEo20$w3#/u3(f2p7-XW'%s50.PW6
Z
a7H#o!mlFhm0!tqEi\.E=+c%Jpi#o!mlFhm0!tqEi\.E=+c%Jp>#ih[1TS$<63$z
aA=rw7w.w'4tFrJlF6R*'f=dJ5XUw(9U-;i3HE*\H([
8
/z[j2'4t'7w./\DEo20$w3#/up[U2p75X32*T90.PW6
Z
aA=Uw7w.w'4tFrJlF6R*'f=dJ0=5w(9v-9ivL>*\H([
8
/3sxFhmEo!m3m 54Tr]lL86-43ixFhmEo!m3m 54Tr]lL86-432xszJrH)2257i8
/z[f2'4t'7w./\DEo20$w3#/up[v2p7rXW'fJ*0.PW6
Z
aABjw7w.w'4tFrJlF9H5L=3[ 32E=+ch2p7vXM:1H00.PE6
Z
0
[O-3:38d-)cv[0_W'.$t=r[G5=Vl:/XhZEyp#:257I8
q
%n%S$)cv=38dXr:'7]4I-,\Sc[H+$x#UH'1hP><63$Z
0
[O-4:38d-)cv[0_W'.$t=r[G5=V4:/XjZ<],c:257I8
q
%'J2'4T'7W./\deO20$W3#/U3:J2'4T'7W./\deO20$W3#/U3:V2)!3+w:/(==uQ
%n%t$)cv=38dXr:'7]4I-,\Sc[/Y$x#3HI1)7j<63$Z
0
[O-l:38d-)cv[0_W'.$t=r[G5=Rp:/X)ZhuUe$257I8
q
%n%E$)cv=38dXr:'7]4I-,\Sc[ut$x#4H$/)7$<63$Z
0
[O;+:38d-)cv[0_W'.$t=r[G5=;,:/XtZx-3e'257I8
q
%U 2'4T'7W./\deO20$W3#/U3:12'4T'7W./\deO20$W3#/U3UF2)!;4)$/(==uQ
%nuj$)cv=38dXr:'7]4I-,\Sc[/:$x#4HIJt)h<63$Z
0
[O;3:38d-)cv[0_W'.$t=r[G5b3h:/X+ZhVlc$257I8
q
%U/2'4T'7W./\deO20$W3#/Uc[V2'4T'7W./\deO20$W3#/Uc[J2)!;4)2J(==uQ
%nu+$)cv=38dXr:'7]4I-,\Sc' +$x#hH/V:70.pw6
Z
0
L
[
gdm(XfHMeO!M3M 54h>2HW'OVU==12P7-x)[HE(0.pe6
Z
0
L
[
gdw/XfHMeO!M3M 54h>2HW3#/U3912*!-pw/*(==yQ
y
kGT774#0qE7W-$[=3js9>E=+c e$X#Jh:h)*0.PE6
Z
aAi-w7w.w'4tFrJlF9H5L=R[g9=#+:ubJpevi9! Tl
[
gdwUXfHMeO!M3M 54t;*$ 854;;W-(:54to/Ll86VW(9%-5j-j9! tL
[
gdw:XfHMeO!M3M 54t;*$M654;;W-(:54to[Ll863I:/XhZ>Rlw[257I8
q
%n*+$)cv=38dXr:'7]6(6r*'7%67<0''7]P:-,\S3:X:$=+peIujT33jy
6
>!($#O!MLfHM0!TQeI\.e=+C%hs=#+::Bj5b3j9! tL
[
gdw$XfHMeO!M3M 54tR]Ll86-pmIX:$h+4w$J)T33jy
6
>t*74#0Qe7w-$[=3$M65% q' )974#0Qe7w-$[=3$M65% q' )07VxmIJt)0.pw6
>!(E#O!MLfHM0!TQeI\.e=+C%hs$#+::B+9<;39! tL
[
gde/XfHMeO!M3M 54tR]Ll86-p>UX:$j+p3UJST33jy
6
>v774#0Qe7w-$[=3$M65% q' S)74#0Qe7w-$[=3$M65% q' Ss7;x#I1:(0.pw6
>!*b#O!MLfHM0!TQeI\.e=+C%h)h#+:'B)5=3h9! tL
[
glm9e7w54#0-4\-)*!2Qiz.b33(9e7w54#0-4\-)*!2Qiz.b3U#9/-s<5h>*\h([
gde:XfHMeO!M3M 54tR]Ll86-pm/X:$h++P(*tT33jy
6
>!*<#O!MLfHM0!TQeI\.e=+C%h;b#+:[Bj(j3j9! tL
[
8
/z(U2'4t'7w./\DEo20$w3#/uC' 2p7vXE(1VS0.PW6
Z
aAevw7w.w'4tFrJlF6R*'f=dJ5Bvw(9j-*<j4#*\H([
8
/z(v2'4t'7w./\DEo20$w3#/uCu%2p7vX#$*V;0.PW6
Z
a;$#o!mlFhm0!tqEi\.E=+c%J5J#o!mlFhm0!tqEi\.E=+c%J5H#ihuvy9$<63$z
aAeUw7w.w'4tFrJlF6R*'f=dJ5B;w(9v-pJUi>*\H([
8
/#sxFhmEo!m3m 54Tr]lL86-uM[xFhmEo!m3m 54Tr]lL86-uM'xsz=jJM2257i8
/z(f2'4t'7w./\DEo20$w3#/uCu 2p7-XM$*+)0.PW6
Z
aA=j+:38D-)CV[0_w'$vHEqEiv,p'f=d+$X#3h//H7B<63sz
0
[O3+39e7w54#0-4\-)5I)SLf6Y%:=3$;/xe (912s!RpcI257$8
/z[1J$)CV=38DxR:'72/y*54TOROw'.[k(q[:$X#uhujV9J<63$z
aA=j3:38D-)CV[0_w'$vHEqEiv,p'7]=up5\+:/x)z<]4>*\H9[
gd3//2'4T'7W./\deO):Jv-)*;F<Lf61Z+==12P73xm' t)0.pw6
Z
aA=j4:38D-)S2fw[:-)j'j_f/$X#4h//y7e<63$z
aA=jH:38D-)S2fw[:-)j'j_f/$X#4hs1epe<63$z
aA=jJ:38D-)S2fw[:-)j'j_f/$X#ih2h))$<63$z
0
[O3+e9e7w542 r8zP54+=_k [7JWmEH:s=y)*[*0
[O3+#9e7w542 r8zP54+=_k [7JW3Eu:(j3)*[J0
L
s3P(9E7W542 R8Zp54+=_KVx74#0qE'j,C (qE:-Nb,[9 -(X]JC*\H([
gd3[ 2'4T'7x7lH#J'7/Lx+>0W(9 -PI3l9! tL
s3PC9E7W542 R8Zp54+=_KVx74#0qE'j,C (qE:-Nb,[9U-7XjH>*\H([
gp3UXfHMeO xi78xeO(Qkx*-#O!MLfJ%%#+/LfP5B>#-XhZx53e(257$8
/z[ s$)CV=37'34\+=31w+NYF:/xHz>3,p'257$8
/z[ +$)CV=37'34\+=31w+NYF:/xHzH53#'257$8
q
%n h974#0Qe'J,c (Qe:-nB/%9127!5+>2J(==uQ
%n h(74#0Qe'J,c (Qe:-nB/%912*!3Uc' (==uQ
%[ v$)cv=37'34\+=31W+ng/:38d-)s2FW[:-)J'J_PA$>+jc//)T33jy
k H;74#0qE'j,C (qE:-Nb/%9E7W542 R8Zp54+=_K [7;X#uj);0.PW6
>!7bJW7W.W'%s=!=1W'xe>JK>2P7;x3UFj*0.pw6
Z
0
[O3Uc9e7w542 r8zP54+=_k/[7JW3E1j;I])*[J0
[O3Um9e7w542 r8zP54+=_k/[7JWeEHY;hu)*[*0
[O3U>9e7w542 r8zP54+=_k/[7JW3E1Y)bV)*[*0
L
[
8
/3'*2'4t'7X7Lh#j'7/lX+X_w7w.w'%S=!=1w'XE>j->27!jJE[%(==Uq
%[%v$)cv=37'34\+=31W+nJ%:38d-)s2FW[:-)J'J_3A$j+U>I%tT33jy
kGH5e#o!mlFj%%#+/lFp5b>(>x:$i+PW$hTt33JY
kGHSX#o!mlFj%%#+/lFp5b>(>x:$<+i(/ Tt33JY
kGHS=#o!mlFj%%#+/lFp5b>(>x:$=+L#/%)t33JY
k )574#0qE'j,C (qE:-Nb+49E7W542 R8Zp54+=_K/[73X>2j:00.P)6
>hsj#O!MLfJ%%#+/LfP5B>(>XfHMeO xi78xeO(QkxXS#pH/F:)E<63$Z
aA=;i:38D-)S2fw[:-)j'j_1N$X#Jh/%s)J<632z
aA=;4:38D-)S2fw[:-)j'j_1N$X#4hu*e(H<63$z
aA=;H:38D-)S2fw[:-)j'j_1N$X#3h[UySe<632z
0
L
s2P>/xFhmEo!m3m 54H>2hw'.d=8qEiG93'+/x:$=+i(2/Jt33HY
kGH)=#o!mlFhm0!tqEy)$Y'7]pLE54T'B w8X#+:'be0=5P9! yl
s2P>'xFhmEo!m3m 54H>2hw'.d=8qEiG93'+/x:$i+P#[ yt33JY
6
>!7h;W7W.W'4TfRjLf9h5l=r[G0E#+:UBj0<Jj9! vL
[
gp>:XfHMeO!M3M 54h>2HW'.D=8Qkx+74#0Qe7w-$[=3JS9>eO2%i#-)*$<[LzP7yx):Hvs0.pw6
>!7hRW7W.W'4TfRjLf9h5l=3$ 32e>J_X:$<+l>/H)T33jy
k s974#0qE7W-$[=3js9>Eo2%I#-Nb>:38D-)CV[0_w'$vHEqEiv,p'7]=u75\+:[be7i-J9! Tl
s3iW9E7W54#0-4\-)5i)slF6y%:=_KX$)CV=38DxR:'72/y*54TOROw'.[k3q[:$=++W:%st33HY
kGH)>#o!mlFhm0!tqEy)$Y'7]pLE5b>j912S!54#/*(==5q
%[/E$)cv=38dXr:'72/Y*54toroW+nBW7W.W'4TfRjLf9h5l=3$ 32eO250h-#JWcE*Ss>-)*[J0
[O34(9e7w54#0-4\-)5I)SLf6Y%:=_kx$x#3H[F)0j<632Z
aA=rP:38D-)CV[0_w'$vHEqEiv,p'j_K2p7]XC2jH90.PW6
>!7<-W7W.W'4TfRjLf9h5l=3$ 32e>J_X:$$+U32JST33jy
kGH0J#o!mlFhm0!tqEy)$Y'7]pLE5b>j9127!5L3/v(==Uq
%[VS$)cv=38dXr:'72/Y*54toroW+nBW7W.W'4TfRjLf9h5l=3$ 32eO250h-#JW3E%+(j-)*[J0
[=R4:38d-)cv[0_W'$VheQeIV,P'J_k2'4T'7W./\deO):Jv-)*;F<Lf61Zp==12)!5332/(==uQ
%[VY$)cv=38dXr:'72/Y*54toroW+nBW7W.W'4TfRjLf9h5l=3$ 32eO250h-#JWPE1)5=V)*[*0
[O34w9e7w54#0-4\-)5I)SLf6Y%:=_kx$x#pH$*Y0E<63$Z
0
[O34e9e7w54#0-4\-)*59]4I-)D5!\23-)*;mQiz.j5+:/XEZEV3c$257I8
q
%[VE$)cv=37'34\+=31W+n[/:38d-)s2FW[:-)J'J_1n$=++c2V)T33hy
k yp74#0qE'j,C (qE:-Nb$%9E7W542 R8Zp54+=_K/[73X(s J00.P)6
>h9=#O!MLfJ%%#+/LfP5B>'KXfHMeO xi78xeO(QkxPA#3H[JE(h<63$Z
a7$-w7w.w'%S=!=1w'XE>j5>2'4t'7X7Lh#j'7/lX+X_w3e/)*J<632z
a7$;w7w.w'%S=!=1w'XE>j5>2'4t'7X7Lh#j'7/lX+X_wCe/T5><63$z
a7$vw7w.w'%S=!=1w'XE>j5>2'4t'7X7Lh#j'7/lX+-GwCeh)S>5)*[*0
[=54:38d-)s2FW[:-)J'J_=A$)cv=37'34\+=31W+nJ%:2BE5h3j9! tL
s2P)2xFhmEo XI78XEo(qKXGs#+:2b+5Xv39! Tl
s3HW9E7W542 R8Zp54+=_K;[74#0qE'j,C (qE:-NbF%9%-;X3+W*\H([
gp)SXfHMeO xi78xeO(QkxgS#O!MLfJ%%#+/LfP5B>(>XSZ>JIc[257I8
/z[je$)CV=37'34\+=31w+N[/:/xez<-JM2257i8
/3$12'4t'7X7Lh#j'7/lX+1Gw7w.w'%S=!=1w'XE>j/n2S!5+C'j(==Uq
%[*h$)cv=37'34\+=31W+n[/:38d-)s2FW[:-)J'J_3A$=+UP[%YT33hy
k T574#0qE'j,C (qE:-Nb$%9E7W542 R8Zp54+=_K:_73X([U+70.PW6
>!7I;W7W.W'%s=!=1W'xe>J5>2P73xeUHv;0.pw6
Z
a7ivw7w.w'%S=!=1w'XE>j3E2'4t'7X7Lh#j'7/lX+>0w3eU)pJU)*[*0
[=u4:38d-)s2FW[:-)J'J_ef$)cv=37'34\+=31W+n]f:SBv*h;p9! tL
s2PW2xFhmEo XI78XEo(qKX')#+:ibH(>-39! yl
s2PW$xFhmEo XI78XEo(qKX')#+:$bT*>UJ9! yl
s3JE9E7W542 R8Zp54+=_KF'74#0qE'j,C (qE:-NbL[9 -pe5L#*\H([
gpw(XfHMeO xi78xeO(Qkx')#O!MLfJ%%#+/LfP5B>#-XhZI]hw'257I8
/3s12'4t'7X7Lh#j'7/lX+)4w7w.w'%S=!=1w'XE>j(320!3L(uU(==Uq
%n v774#0Qe'J,c (Qe:-nBO7912)!JUw[ (==5Q
y
kGH*B#o!mlFj%%#+/lFp5h+:/xTzeUu3*\H([
gpeUXfHMeO xi78xeO(Q;:$)cv=37'34\+=31W+nD/::Bh;hyl9! tL
s3L>9E7W542 R8Zp54+=F12'4t'7X7Lh#j'7/lX+sGwWevV;<5)*[*0
[O3lP9e7w542 r8zP54+=f12P7Rxc2uj70.pw6
>h*$#O!MLfJ%%#+/LfP5H+:38d-)s2FW[:-)J'J_PA$=++cU1+T33jy
kGH*i#o!mlFj%%#+/lFp5h+:/xTz$]uE'257i8
/3sh2'4t'7X7Lh#j'7/l>p74#0qE'j,C (qE:-Nb;%9U-0B-3E*\H([
gd3SF2'4T'7x7lH#J'7/L>P7JW3E1S7h;)*[J0
[=]+:38d-)s2FW[:-)J'a/XfHMeO xi78xeO(Qkx[S#4H'Jh(b<63$Z
a7e3w7w.w'%S=!=1w'XE*(9E7W542 R8Zp54+=_Ka[73XC(fst33JY
kGH;B#o!mlFj%%#+/lFp5h+:/x)zJv43$257i8
/3(U2'4t'7X7Lh#j'7/l>p74#0qE'j,C (qE:-Nb/%9%-9J5uM*\H([
gp#:XfHMeO xi78xeO(Q;:$)cv=37'34\+=31W+nD/:UB:5hVl9! tL
s2P#ixFhmEo XI78XEo(q;:$X#Jhihypi<63$z
a7e5w7w.w'%S=!=1w'XE*(9E7W542 R8Zp54+=_Ka[73X32UJ90.P)6
>!7EuW7W.W'%s=!=1W'xe*(9127!;p>$%(==uQ
y
kGH;>#o!mlFhm0!tqEi:0*!2qE :49);qEivJE=+c T$X#uh:v+*H<63$z
0
[O3,#9e7w54#0-4\-)*59]4I-)D5!\23-)*;mQiz.bJW(9%-*E3I>*\h([
8
/z'1:$)CV=38DxR:'7]6(6R*'7%67<0''7]p+-)Y'+/x:$=+4p'1st33JY
6
>!5x3W7W.W'4TfRjLf6Y\'F=Dj(hVW(9J-sbRhP*\h([
8
/C/%2'4t'7w./\DEo2%[w3#/uW:v2'4t'7w./\DEo2%[w3#/uW:/2)!34)2f(==Uq
%n%:s74#0Qe7w-$[=3$ 85% q'*S07JWcE/Y0hV)*[*0
L
s2u(:xFhmEo!m3m 54Tr]lL86-P>(x:$J+LE/*yt33JY
6
>jP<#O!MLfHM0!TQeI\.e=+C%h0x#O!MLfHM0!TQeI\.e=+C%h)E#3H$ YPh<63$Z
aABjH:38D-)CV[0_w'.$T=R[g5=r+:/xJzJ-u32257i8
q
%'1t$)cv=38dXr:'7]4I-,\Sc[/t$)cv=38dXr:'7]4I-,\Sc[/v$h+p($uST33jy
kGJp>#o!mlFhm0!tqEi\.E=+c%H)i#+:'by;<5,9! Tl
[
gdc/F2'4T'7W./\deO20$W'.3UPQ0OJx#+:UB);<uI9! YL
s-P(9E7W54#0-4\-)*!2qEi7Br'<o7:$)CV=38DxR:'7]4i-,\sC[/)$B++Ei*Jt33JY
6
>!5=3W7W.W'4TfRjLf6r*'7] j05D9 [X:$b+4w(u(==5Q
%' j$)cv=38dXr:'7]4I-)*pcIL >%3W7W.W'4TfRjLf6r*'F=Dj7h;WwEH:;=;)*[H0
[O-pm9e7w54#0-4\-)*!2QeI7bR'oO7h$x#pHU1)9><63$Z
aAB3i:38D-)CV[0_w'.$T=3$H5<E;UX 2p73X3'jV)0.PW6
>!5=RW7W.W'4TfRjLf6r*'7] j05D9 [X:$=+UeI1hT33jy
kGJ7$#o!mlFhm0!tqEi\.Eo2[%+-yK239127!-4>i (==Uq
%n%h(74#0Qe7w-$[=3$M654t3'VWV\sp:/XhZ=-jP2257I8
q
%' v$)cv=38dXr:'7]4I-,\Sc[uj$)cv=38dXr:'7]4I-,\Sc[uh$h+3P2JST33jy
kGJ7e#o!mlFhm0!tqEi\.E=+c%HSB#+:'be)i]u9! Tl
[
gdc'12'4T'7W./\deO20$W3#/U3:%2P7-xm2 )*0.pw6
Z
a5B3w7w.w'4tFrJlF6R*'f=dJ7H3w7w.w'4tFrJlF6R*'7] J05z9 /xezJ54p$257>8
/C'%2'4t'7w./\DEo20$w3#/u3: 2'4t'7w./\DEo20$w'.3upqpoj=#uh/vH0$<63$z
a5B;w7w.w'4tFrJlF6R*'f=dJ7H3w7w.w'4tFrJlF6R*'f=dJ7H-wMe*V5$<63$z
aAB-i:38D-)CV[0_w'.$T=R[g5=vP:/xJz<53)(257i8
q
%n%j074#0Qe7w-$[=3$M65% q'%:97JWmE1EPj;)*[*0
L
s2uC2xFhmEo!m3m 54Tr]lL86-u('x:$B+3p'hHt33JY
6
>j5I#O!MLfHM0!TQeI\.e=+C%+7h#O!MLfHM0!TQeI\.e=+C%+7j#IHUVY(j<63$Z
aAB-L:38D-)CV[0_w'.$T=R[g5<3i:/x+zH]iE[257i8
q
%n%j;74#0Qe7w-$[=3$M65% q' EP7JW>E%S(b])*[*0
L
s-3(9E7W54#0-4\-)*!2qIZ.B3L#9E7W54#0-4\-)*!2qIZ.B3,(9/-peju>*\H([
gdcU 2'4T'7W./\deO20$W3#/U3SF2P73x):JY90.pw6
Z
aAB;u:38D-)CV[0_w'.$T=R[g5=]L:/x)zBrHEi257i8
q
%'u)$)cv=38dXr:'7]4I-,\Sc[Ft$)cv=38dXr:'7]4I-,\Sc[Fv$h++#/%ST33jy
kGJSH#o!mlFhm0!tqEi\.E=+c%H;i#+::bV)eU49! Tl
[
gdcUV2'4T'7W./\deO20$W3#/U3(/2P7;xw'%v90.pw6
Z
a5J5w7w.w'4tFrJlF6R*'f=dJ7e;w7w.w'4tFrJlF6R*'f=dJ7evw>e1epBv)*[*0
[O-3w9e7w54#0-4\-)*!2Qiz.b3,m9127!5pP[J(==uQ
y
k%)*74#0qE7W-$[=3$m65% Q'%:074#0qE7W-$[=3$m65% Q'%:97vX((1J)0.PW6
>!5j]W7W.W'4TfRjLf6r*'F=Dj5xRW(9/-;=],w*\h([
8
/C:12'4t'7w./\DEo20$w3#/uC/ 2'4t'7w./\DEo20$w3#/uC/%2)!j,('/(==Uq
%n%S774#0Qe7w-$[=3$M65% q'%:77JWcE/EP=R)*[*0
L
s2u>'xFhmEo!m3m 54Tr]lL86-u(:x:$=+iW'/Vt33JY
6
>j)j#O!MLfHM0!TQeI\.e=+C%jPj#O!MLfHM0!TQeI\.e=+C%jPh#IH[1ts$<63$Z
aABvi:38D-)CV[0_w'.$T=R[g5Bj3:/xJze-JE'257i8
q
%n%S074#0Qe7w-$[=3$M654t3'VW/\sp:/XvZI3I([257I8
/z'/y$)CV=38DxR:'7]4i-)*PCilu>%3w(9f-)eU,9! Tl
s2u>$xFhmEo!m3m 54Tr]lF6=-4=BM'77jw3e1V)H<632z
a5HYw7w.w'4tFrJlF6R*'7] J05z9 [xFhmEo!m3m 54Tr]lL86-PM$xez<jP3$257>8
/C:f2'4t'7w./\DEo20$w'.3upq0oj=#o!mlFhm0!tqEi\.E=+c%H)X#ih(fH0<<63sz
aABr+:38D-)CV[0_w'.$T=3$H5<EkUX 2p73XEs257<8
/z'vH$)CV=38DxR:'7]4i-)*PCilu>%3w(9f-)ij,#*\H([
gUP'XfHMeO!M3M 54tR]Lf6=-4=bm'774#0Qe7w-$[=3$M65% q' );7-x)21+(0.pw6
>!5<;W7W.W'4TfRjLf6r*'7] j05Z9 [X:$I+pP21ST33jy
kGJ0H#o!mlFhm0!tqEi\.Eo2[%+-9K23912*!]+C2f(==Uq
%n%+074#0Qe7w-$[=3$M654t3'VW/\sp:/XEZIJhw(257I8
/z'vy$)CV=38DxR:'7]4i-)*PCilu>%3w(9f-Siv,#*\H([
gdcI*2'4T'7W./\deO20$W'.3UPQ0OJ=#+:[B:0$Rp9! YL
s2upsxFhmEo!m3m 54Tr]lF6=-4=BM'77jw3e1H5$;)*[j0
[O-4#9e7w54#0-4\-)*!2QeI7bR'<O7h$x#lH(J)5h<63$Z
aAB5+:38D-)CV[0_w'.$T=3$H5<EkUX 2p73X((1H(0.P)6
>!5$3W7W.W'4TfRjLf6r*'7] j05Z9 [X:$=+p>I%jT33hy
kGJ9B#o!mlFhm0!tqEi\.Eo2[%+-9K23912;!]+((/(==Uq
%n%Ys74#0Qe7w-$[=3$M654t3'VW/\sp:/XhZx;I):257$8
/z'js$)CV=38DxR:'7]4i-)*PCilu>%3w(9 -pJ5uM*\H9[
gdc2V2'4T'7W./\deO20$W'.3UPQ0OJ=#+:[B:Pj5j9! YL
s2u)2xFhmEo!m3m 54Tr]lF6=-4=BM'77jw#eUy*<<63$z
aAB5J:38D-)CV[0_w'.$T=3$H5<EkUX 2p7]XCu J70.PW6
>!5$yW7W.W'4TfRjLf6r*'7] j05Z9 [X:$=++>I/ST33hy
kGJ9e#o!mlFhm0!tqEi\.Eo2[%+-9K239127!3+M[*(==5q
y
kGJ(X#o!mlFhm0!tqEi\.E=+c%H9=#+:uby7HvH9! Tl
[
gUw[XfHMeO!M3M 54tR]Ll86-p)'XfHMeO!M3M 54tR]Ll86-p)[XSZ=Jj>:257I8
/z'*J$)CV=38DxR:'7]4i-,\sC[jJ$X#ih/1epH<63$z
0
[O-jm9e7w54#0-4\-)*!2Qiz.b34)9125!3U#:257I8
q
%n%t)74#0Qe7w-$[=3$M65% q' t)7JWcE/S;b5)*[*0
L
s2uWixFhmEo!m3m 54Tr]lL86-PW/x:$J+u>$*+t33JY
6
>!5I5W7W.W'4TfRjLf6r*'F=Dj7>;W(9%-9IyI#*\h([
8
/C$*2'4t'7w./\DEo20$w3#/u3$U2'4t'7w./\DEo20$w3#/u3$/2S!]4)2j(==Uq
%n%t*74#0Qe7w-$[=3$M65% q' ts7JWcE1v9h;)*[*0
L
s2uW(xFhmEo!m3m 54Tr]lL86-PW(x:$<+3)/hJt33JY
6
>!5>JW7W.W'4TfRjLf6r*'F=Dj7IuW(9J-*Iu3m*\h([
8
/Cs 2'4t'7w./\DEo20$w3#/u3$h2'4t'7w./\DEo20$w3#/u3$*2)!;4)$/(==Uq
%n%v574#0Qe7w-$[=3$M65% q' t*7JWPE j5=5)*[*0
L
s2uEuxFhmEo!m3m 54Tr]lL86-PW[x:$B++)s%Jt33JY
6
>j*h#O!MLfHM0!TQeI\.e=+C%h(b#O!MLfHM0!TQeI\.e=+C%h(=#IH[/E7$<63$Z
aABY4:38D-)CV[0_w'.$T=R[g5=Uu:/x)zXvHC$257i8
q
%n%v974#0Qe7w-$[=3$M65% q' Ys7JWmEJYs>;)*[*0
L
s2uE$xFhmEo!m3m 54Tr]lL86-P)$x:$J++E(h+t33JY
6
>j*>#O!MLfHM0!TQeI\.e=+C%h0<#O!MLfHM0!TQeI\.e=+C%h0$#IH[1t)h<63$Z
aABY,:38D-)CV[0_w'.$T=R[g5=r4:/xHz<-P3*\H([
8
q
y
6
Z
0
L
[
8
q
y
6
>!sxyW7W.W'4TfRjLf9h5l=3$ 32eO250j-#JW(9u-(hVhe*\h9[
gdm/F2'4T'7W./\deO):Jv-)*;F<Lf61ZU==12P7-xw'uj90.pw6
>!s=JW7W.W'4TfRjLf9h5l=3$ 32eO250j-#JW(9u-)jJU)*\h([
gdm[ 2'4T'7W./\deO):Jv-)*;F<Lf61ZU==12P73x3'uts0.p)6
Z
aAJ3u:38D-)CV[0_w'$vHEqEZv,p'7]=u55\+:/xHzX]H>$257$8
/zu )$)CV=38DxR:'72/y*54 OROw'.[kCq[:$X#Hh:j+)<<63$z
aAJ3i:38D-)CV[0_w'$vHEqEZv,p'7]=u55\+:/x)zJrLE[257$8
q
%nuh074#0Qe7w-$[=3JS9>eO+%i#-,\SP9125!]j(:F(==yQ
y
6
>!sb-W7W.W'4TfRjLf9h5l=3$ 32e>J4X:$$+I>:/tT33hy
kUJS74#0qE7W-$[=3js9>Eo2%I#-Nb\:38D-)CV[0_w'$vHEqEiv,p'j_K29!-HM2257i8
/M'/2'4t'7w./\DEo):jV-)*;f<lX+g#o!mlFhm0!tqEy)$Y'7]pLE5b>j9 -0B3uW*\H9[
g3cIXfHMeO!M3M 54h>2HW'.D=8Qkxm74#0Qe7w-$[=3JS9>eO2%i#-nB>::B+s=y39! tL
s23C2xFhmEo!m3m 54H>2hw'.d=8qKXM7jwpevyS=5)*[j0
[j-j:38d-)cv[0_W'$VheQeIV,P'J_,2'4T'7W./\deO):Jv-)*;F<Lx+n#jHSFj9j<63$Z
aAJ-L:38D-)CV[0_w'$vHEqEiv,p'j_,2p7rXW(Uy70.PW6
>!sb]W7W.W'4TfRjLf9h5l=3$ 32e>J4X:$$+Uc: jT33jy
kU)p74#0qE7W-$[=3js9>Eo2%I#-Nb\:38D-)CV[0_w'$vHEqEiv,p'j_K27!]3>$ (==Uq
%Uuh$)cv=38dXr:'72/Y*54toroW+nwW7W.W'4TfRjLf9h5l=3$ 32e=+CV2;!JIm: (==]Q
%nu)574#0Qe7w-$[=3JS9>eO2%i#-nB\:/XjZhV3mU257$8
/zuU)$)CV=38DxR:'72/y*54TOROw+NWw(9f-5=]J3*\H([
8
/zuUs$)CV=38DxR:'7]6(6y\'7%67<0''7]pJ-,\s>9125!j4((*(==Uq
y
kG)S<#o!mlFhm0!tqEi:0*;+qE :49);qEiv=E=+c*2p7-XEu%)*0.PW6
Z
aAJ;H:38D-)CV[0_w'.')20$w',z'+5%2p7vX3/ y;0.P)6
>!sjuW7W.W'4TfRjLf68<tR]Lf39e ''X:$E+l>$%(==5Q
%nu)*74#0Qe7w-$[=3$3T.$t=3iU-#[U:/XhZEJIm$257$8
/zuUe$)CV=38DxR:'7]6(6R*'7R0w81-w(9U-p<riE*\H9[
8
/zu/:$)CV=38DxR:'7]pZ-,\sC$Uy$X#ih2/+9=<63$z
0
[jVp:38d-)cv[0_W'.D =r[G5I;j:38d-)cv[0_W'.D =r[G5I;h::Bh;>]p9! tL
s23>'xFhmEo!m3m 54TO=lL86-JM$x:$J+3Muv)t33JY
6
>!sh;W7W.W'4TfRjLf68<tR]LfV8cY9YLf6YR'F=Dh07JW3EJj7$y)*[H0
L
s23>:xFhmEo!m3m 54T;*$m654;;w-(:54TOilL86v+:/xyz<r,9! Vl
[
gdm:V2'4T'7W./\deO2Y2I\.eOoY8pT8eO2%VW3#/U#9127!;,(IV(==uQ
y
kG))$#o!mlFhm0!tqEi:0*!2qE :49);qEivHE=+c V$X#4huUV(=<63sz
0
[O;Iw9e7w54#0-4\-)*59]4I-)D5!\23-)*;>Qiz.bVW(9*-(I3p>*\h*[
8
/zu/V$)CV=38DxR:'7]6(6R*'7%67<0''7]pJ-,\s3'x:$B+3MujTt33JY
6
>!sh]W7W.W'4TfRjLf6r*'F=Dj7>3W(9%-Pxuh>*\h([
8
/Mi12'4t'7w./\DEo20$w3#/u3s%2'4t'7w./\DEo20$w3#/u3s 2S!]4(/*(==Uq
%nu+774#0Qe7w-$[=3$M65% q' v57JW3EFh0>;)*[*0
L
s23p'xFhmEo!m3m 54Tr]lF6BrZCqpoj=#+:'bV7Xvu9! yl
s23puxFhmEo!m3m 54Tr]lF6BrZCqpoj=#+:[bJ9XYL9! Tl
s23p:xFhmEo!m3m 54Tr]lF6BrZCqpoj=#+:[b)0X]i9! Tl
s;4p9E7W54#0-4\-)*!2qEi5<Iu=%M'774#0qE7W-$[=3$m65% Q' V07-X(:j+70.PW6
Z
aAJrH:38D-)CV[0_w'.$T=3$J0'-'<o7:$X#3h2h+0=<632z
aS<Uw7w.w'4tFrJlF6R*'7]%+CBEkUX12'4t'7w./\DEo20$w3#/u3sv2;!;4#uj(==Yq
y
kU+*74#0qE7W-$[=3$m65% Q' V(74#0qE7W-$[=3$m654TCi'J-yK239*-*XrHE*\H*[
g3P(XfHMeO!M3M 54tR]Ll86-pe$XfHMeO!M3M 54tR]Lf6bRzcQ0OJx#UH[Fv7=<63$Z
aAJ5+:38D-)CV[0_w'.$T=R[g5=YJ:/x)z<-HM:257i8
q
%UJh$)cv=38dXr:'7]4I-,\Sc[Hv$)cv=38dXr:'7]4I-,\Sc[Ht$j+,P/1tT33jy
kG)9B#o!mlFhm0!tqEi\.E=+c%H*>#+:'bH)J3i9! Tl
[
g3)UXfHMeO!M3M 54tR]Lf6bRzcQ0OJ=#O!MLfHM0!TQeI\.e=+C%h(>#IH$/:)$<63SZ
aAJ5i:38D-)CV[0_w'.$T=3$J0'-'<o7H$X#PhshH(><63iz
aS$rw7w.w'4tFrJlF6R*'7]%+CBEkUX 2'4t'7w./\DEo20$w3#/u3$f27!j+($U(==Uq
%nuY974#0Qe7w-$[=3$M654tcI'j-9k23912;!JIe2u(==uQ
%UJt$)cv=38dXr:'7]4I-)*UPl%W/\sp:38d-)cv[0_W'.$t=r[G5=uj:'B+(x5)*[*0
[O;he9e7w54#0-4\-)*!2QeI5<iU=bm'77JW)EFjP=])*[*0
[O;h#9e7w54#0-4\-)*!2QeI5<iU=bm'77JW3E )*IV)*[J0
[O;j(9e7w54#0-4\-)*!2QeI5<iU=bm'77JW#E%j0h])*[*0
[O;j39e7w54#0-4\-)*!2QeI5<iU=bm'77JWeE*v*=V)*[*0
[O;jc9e7w54#0-4\-)*!2QeI5<iU=bm'77JW#EF:)$y)*[*0
[O;jm9e7w54#0-4\-)*!2QeI5<iU=bm'77JW#Euh0E-)*[*0
[O;j>9e7w54#0-4\-)*!2QeI5<iU=bm'77JW#E%S*xR)*[*0
[O;jP9e7w54#0-4\-)*!2QeI5<iU=bm'77JW#EFj($R)*[*0
[O;j)9e7w54#0-4\-)*!2QeI5<iU=bm'77JWeEV+5jV)*[*0
[O;jw9e7w54#0-4\-)*!2QeI5<iU=bm'77JW#EVt;IR)*[*0
[O;je9e7w54#0-4\-)*!2QeI5<iU=bm'77JW3E h)<y)*[J0
[O;j#9e7w54#0-4\-)*!2QeI5<iU=bm'77JW3E1jPxu)*[J0
[O;l(9e7w54#0-4\-)*!2QeI5<iU=bm'77JW3E :7b<632Z
aAJYP:38D-)CV[0_w'.$T=3$J0'-'<o7H$X#Ph[1V0$<632z
aAJYu:38D-)CV[0_w'.$T=3$J0'-'<o7H$X#Ph[ :(J<632z
aAJY3:38D-)CV[0_w'.$T=3$J0'-'<o7H$X#LhsvJ5=<63$z
aAJYi:38D-)CV[0_w'.$T=3$J0'-'<o7H$X#Lh:*e9><63$z
aAJY4:38D-)CV[0_w'.$T=3$J0'-'<o7H$X#Ph/1+(J<632z
aAJYH:38D-)CV[0_w'.$T=3$J0'-'<o7H$X#Ph/j:)e<632z
aAJYJ:38D-)CV[0_w'.$T=3$J0'-'<o7H$X#,hi*e50.PW6
Z
aS>Yw7w.w'4tFrJlF6R*'f=dJ7>5w7w.w'4tFrJlF6R*'f=dJ7>rwMefs;eU)*[*0
[O;l#9e7w54#0-4\-)*!2Qiz.b3l)912s!upP( (==uQ
y
kUep74#0qE7W-$[=3$m654TCi'H-yK239E7W54#0-4\-)*!2qIZ.B3i#9%-7e3LM*\H([
gdm( 2'4T'7W./\deO20$W'.-4][L >%3W(9u-sb5j3*\h9[
gdm(%2'4T'7W./\deO20$W'.-4][L >%3W(9 -($-U)*\h([
g3#UXfHMeO!M3M 54tR]Lf6bRz3QPOJ=#O!MLfHM0!TQeI\.e=+C%h0=#lH/*+5=<63SZ
0
[j]I:38d-)cv[0_W'.$t=3$j0'3'<O7h$)cv=38dXr:'7]4I-,\Sc[uE$>+IPS/)T33ly
kG);<#o!mlFhm0!tqEi\.Eo2'v_75z9 [x:$=+,C[UJt334Y
kUe974#0qE7W-$[=3$m654TCi'H-9K239E7W54#0-4\-)*!2qIZ.B33W9%-0X]i)*\H([
gdm(*2'4T'7W./\deO20$W'.-4][LU>%3W(9J-Ph53m*\h([
gdm(H2'4T'7W./\deO20$W'.-4][LU>%3W(9F-*I5Uc*\h([
gdm(F2'4T'7W./\deO20$W'.-4][LU>%3W(9F-9<yj#*\h([
gd>/12'4T'7W./\deO20$W'.-4][LU>%3W(9 -7xRpw*\h9[
gd>/ 2'4T'7W./\deO20$W'.-4][LU>%3W(9F-0=3h3*\h([
gd>/%2'4T'7W./\deO20$W'.-4][LU>%3W(9F-)bV3w*\h([
gd>/u2'4T'7W./\deO20$W'.-4][LU>%3W(9 -P$-U)*\h9[
gd>//2'4T'7W./\deO20$W'.-4][LU>%3W(9 -5j;lm*\h9[
gd>/V2'4T'7W./\deO20$W'.-4][LU>%3W(9 -PxR3w*\h9[
gd>/J2'4T'7W./\deO20$W'.-4][LU>%3W(9 -Pb3lw*\h9[
gd>/*2'4T'7W./\deO20$W'.-4][LU>%3W(9 -7<Rjw*\h9[
gd>/H2'4T'7W./\deO20$W'.-4][LU>%3W(9F-P$R3e*\h([
gd>/F2'4T'7W./\deO20$W'.-4][LU>%3W(9F-0b3lw*\h([
gd>[12'4T'7W./\deO20$W'.-4][LU>%3W(9 -Pxy,m*\h9[
gd>[ 2'4T'7W./\deO20$W'.-4][LU>%3W(9F-PjR,P*\h([
gd>[%2'4T'7W./\deO20$W'.-4][LU>%3W(9 -PjJpm*\h9[
gd>[u2'4T'7W./\deO20$W'.-4][LU>%3W(9F-sxRjP*\h([
gd>[/2'4T'7W./\deO20$W'.-4][LU>%3W(9F-s$u4c*\h([
gd>[V2'4T'7W./\deO20$W'.-4][LU>%3W(9H-;I5U3*\h([
gd>[J2'4T'7W./\deO20$W'.-4][LU>%3W(9H-9h;U)*\h([
gd>[*2'4T'7W./\deO20$W'.-4][LU>%3W(9 -7$VU#*\h9[
8
/>[h2'4t'7w./\DEo20$w3#/u3uh2'4t'7w./\DEo20$w3#/u3u*2)!;4)2/(==Uq
%: E$)cv=38dXr:'7]4I-,\Sc[uv$)cv=38dXr:'7]4I-)*UPl W/\sp:UBY;IVI9! vL
s2iC/xFhmEo!m3m 54Tr]lL86-PMsx:$H+Hp$*Ht33JY
6
>S5=#O!MLfHM0!TQeI\.e=+C%h0b#O!MLfHM0!TQeI\.e=+C%h0=#3H(F:PE<63$Z
aAH-u:38D-)CV[0_w'.$T=R[g5=ru:/xJz>5+M$257i8
q
%n/js74#0Qe7w-$[=3$M65% q' +(7JWmE1Y(xy)*[*0
L
s2iC:xFhmEo!m3m 54Tr]lL86-4((x:$$+i#( et33JY
6
>!)bRW7W.W'4TfRjLf6r*'F=Dj0=3W(9J-0E;l3*\h([
8
/>'j2'4t'7w./\DEo20$w3#/up[%2'4t'7w./\DEo20$w3#/up[ 2)!;4)$/(==Uq
%n/j(74#0Qe7w-$[=3$M65% q'Vh57JWPE/j0=5)*[*0
L
s2iCsxFhmEo!m3m 54Tr]lL86-u3/x:$J++M:hyt33JY
6
>!)b]W7W.W'4TfRjLf6r*'F=Dj5=3W(9%-)IJ3>*\h([
8
/z:U:$)CV=38DxR:'7]4i-,\sC' s$X#ih$1:S><63$z
0
[h;p:38d-)cv[0_W'.$t=r[G5b33:38d-)cv[0_W'.$t=r[G5b3I::B)0$uI9! tL
s2iM'xFhmEo!m3m 54Tr]lL86-u3ux:$e+P#ih(==Uq
y
k/)S74#0qE7W-$[=3$m65% Q'%:;74#0qE7W-$[=3$m65% Q'%Hp7vX((1J)0.PW6
>!)jVW7W.W'4TfRjLf6r*'F=Dj5x]W(9 -(>],P*\h([
8
/>uv2'4t'7w./\DEo):jV-#z/U9E7W54#0-4\-)5i)slL865P:ubypBj39! Vl
s2iM2xFhmEo!m3m 54H>2hw89G9:/xJzJ5i#$257$8
/z:UT$)CV=38DxR:'72/y*5\k%ox:$=+LC21+t33HY
kGsS>#o!mlFhm0!tqEy)$Y'+B>o$X#Ph:jV;e<632z
aAH;,:38D-)CV[0_w'$vHEq[u[\#+:ib)9<Ui9! Tl
[
gI>/XfHMeO!M3M 54h>2HW88TtoM2/$)cv=38dXr:'72/Y*5\K%OX)ZjRlw'257I8
/>: 2'4t'7w./\DEo):jV-#'V2%.(x74#0qE7W-$[=3js9>E <kM27!]i3(j(==Uq
%n/S574#0Qe7w-$[=3JS9>e ;M$ w00W(9/-)$y4w*\h9[
gd>:u2'4T'7W./\deO):Jv-#'v2%.(X7JW3EJj7$])*[J0
[OVI>9e7w54#0-4\-)5I)SLz:M*;0*32P73x([V:)0.p)6
Z
0
L
[
8
/z:/e$)CV=37'34\+=3G:-#jw(9%-;e]L>*\H*[
8
q
y
6
Z
0
L
[
8
q
y
6
Z
0
L
[
gdPU%2'4T'7d,I\54d)'LzP7JW>E%v)IR)*[*0
L
s24MuxFhmEo XI78XEo(qKX0y0w(9%-;ev4E*\H9[
gdPU/2'4T'7x7lH#J'7/Lx+<Df:/XhZ=54#(257$8
/ziU+$)CV=37'34\+=31w+Nr;[9127!;HM/U(==5q
%nV)974#0Qe'J,c (Qe:-nB4o-X:$<+3P//vT33hy
6
>!0juW7W.W'%s=!=1W'xe=+CV2P75x3I S)0.pe6
Z
aA<;L:38D-)S2fw[:-,\s3ix:$=+43i et33JY
6
>!0j]W7W.W'%s=!=1W'xe>J2P/$x#IH2J:0j<632Z
a0Hjw7w.w'%S=!=1w'XE>j2p/$)CV=37'34\+=31w+Nr;[9%-5X]PE*\H9[
gdP: 2'4T'7x7lH#J'7/Lx+$Df:/XjZE5h>S257$8
/zi/J$)CV=37'34\+=31w+N5;[912S!;L($/(==5q
%nVSs74#0Qe'J,c (Qe:-nBho-X:$j++w:J)T33hy
kG+)H#o!mlFj%%#+/lFp5b>)%32p7-XM$jT50.P)6
>!0hRW7W.W'%s=!=1W'xe>J2P/$x#pH[1Y00.p)6
>!0h5W7W.W'%s=!=1W'xe>J2P/$x#pH2 vsh<632Z
a0HUw7w.w'%S=!=1w'XE>j2p/$)CV=37'34\+=31w+Nr;[9 -5<j,W*\H([
g4>SXfHMeO xi78xeO(Qkx9Y0W7W.W'%s=!=1W'xe>JIP/$b+jc$J+T33jy
kvs;74#0qE'j,C (qE:-NbHO-xFhmEo XI78XEo(qKX0y0wCef:0=-)*[j0
[OR4(9e7w542 r8zP54+=_kYV-#+::Bv*>y39! YL
sr439E7W542 R8Zp54+=_Kyv-#o!mlFj%%#+/lFp5b>p%32S!3Jpuv(==Uq
%IVj$)cv=37'34\+=31W+n5;[9e7w542 r8zP54+=_k+V-#,HU tPh<63$Z
aA<r3:38D-)S2fw[:-)j'j_j x7jwMe%J;X5)*[*0
[OR4>9e7w542 r8zP54+=_kYV-#+:[Bh)<;49! YL
s24pixFhmEo XI78XEo(qKX9y0w(9*-)<3P>*\H([
gdPIJ2'4T'7x7lH#J'7/Lx+$Df:/XhZ=3p3U257$8
/zivT$)CV=37'34\+=31w+N5;[9127!j+M:%(==5q
y
kG+0>#o!mlFhm0!tqEi:0*;+qE :49);qEivXE '912S!v+ps (==5q
%nV+;74#0Qe7w-$[=3$3T.D =3P3H+<5=3$ P5\$:/XjZI3+e(257$8
/zij:$)CV=38DxR:'7]6(6y\'7%67<0''7]p:-#[w(9%-*>U,9! yl
s24)[xFhmEo!m3m 54T;*$ 854;;w-(:54TO/lZG7jw>e1J(H<632z
0
[ORhc9e7w54#0-4\-)*59]Pz-)D5!\23-)*;(Q8zV7JWwEV+0jy)*[*0
[<53:38d-)cv[0_W'.')2%[W'Y'#6*6W'.D+=W[ $)cv=38dXr:'7]6(6Y\'7%67<0''7]P:-#[W3EJj)Ey)*[J0
[<5I:38d-)cv[0_W'.')2%[W'Y'#6*6W'.D+=W[ $)cv=38dXr:'7]6(6Y\'7%67<0''7]P:-,\S>9H-s$Vl#*\h*[
gdP2V2'4T'7W./\deO2Y2IV#eOoY8pT8eO2%1WH#DW(9%-5xRIw*\h9[
gdP2J2'4T'7W./\deO2Y2IV#eOoY8pT8eO2%1WH#DW(9/-9=-h3*\h9[
g4)$XfHMeO!M3M 54t;*$ 854;;W-(:54to/L78Y#O!MLfHM0!TQeI:0*;+Qe :49);QeIVxe '9 -0j333*\h([
g4)SXfHMeO!M3M 54t;*$ 854;;W-(:54to/L78Y#O!MLfHM0!TQeI:0*;+Qe :49);QeIVxe '9%-)>]pP*\h([
gdP2F2'4T'7W./\deO2Y2IV#eOoY8pT8eO2%1WH#DW(9*-*IV3e*\h9[
gdP$12'4T'7W./\deO2Y2IV#eOoY8pT8eO2%1WH#DW(9 -(xV3>*\h9[
gdP$ 2'4T'7W./\deO2Y2IV#eOoY8pT8eO2%1WH#DW(9 -(x]j3*\h9[
gdP$%2'4T'7W./\deO2Y2IV#eOoY8pT8eO2%1WH#DW(9 -;I3,c*\h9[
g4wUXfHMeO!M3M 54t;*$ 854;;W-(:54to/L78Y#O!MLfHM0!TQeI:0*;+Qe :49);QeIVxe '9*-5Iu+)*\h([
gdP$/2'4T'7W./\deO2Y2IV#eOoY8pT8eO2%1WH#DW(9 -0Iyj9! tL
s24WixFhmEo!m3m 54T;*$ 854;;w-(:54TO/l78y#+:2b:*>ru9! yl
s24W2xFhmEo!m3m 54T;*$ 854;;w-(:54TO/l78y#+:ibs5<v49! yl
s24W$xFhmEo!m3m 54T;*$ 854;;w-(:54TO/l78y#+:[b:p<U39! yl
s24WsxFhmEo!m3m 54T;*$ 854;;w-(:54TO/l78y#+:ibJ;i5H9! yl
s24W(xFhmEo!m3m 54T;*$ 854;;w-(:54TO/l78y#+:(bV0H;49! Tl
s24E/xFhmEo!m3m 54T;*$ 854;;w-(:54TO/l78y#+:[bH7=r39! yl
[
g4e[XfHMeO!M3M 54t;*$ 854;;W-(:54to[Lzg74#0Qe7w-$[=3$3T.D =3P3H+<5=3$ 75% q$XjZ<Vjc:257>8
/zihJ$)CV=38DxR:'7]6(6y\'7%67<0''7]pH-#[w(9h-5X53M*\H9[
gdPSu2'4T'7W./\deO2Y2IV#eOoY8pT8eO2% W81#+:[B:P$J,9! YL
s24E:xFhmEo!m3m 54T;*$ 854;;w-(:54TO[lZG7jwMej:pe-)*[j0
[ORlP9e7w54#0-4\-)*59]Pz-)D5!\23-)*;3Q[;$x#4HS S(<<63$Z
aA<YH:38D-)CV[0_w'.')2%[w'y'#6*6w'.dP===2p73X(2v)50.Pp6
Z
a0>Uw7w.w'4tFrJlF68<TO=lFv8Cy9ylF6y3'!=p2'4t'7w./\DEo2y2iv#EoOy8Pt8Eo2% w81#Ph/f+(0.P)6
>+*>#O!MLfHM0!TQeI:0*;+Qe :49);QeIV=e#+%XfHMeO!M3M 54t;*$ 854;;W-(:54to[Lzg7;xPSH)00.pw6
>!0>]W7W.W'4TfRjLf68<to=LfV8cY9YLf6Y3'!=P2P73xmSJE)0.pP6
>!0EJW7W.W'4TfRjLf68<to=LfV8cY9YLf6Y3'!=P2P7Rx)[ vs0.p)6
>!0E3W7W.W'4TfRjLf68<to=LfV8cY9YLf6Y3'!=P2P73x>I%+50.p)6
>!0E-W7W.W'4TfRjLf68<to=LfV8cY9YLf6Y3'!=P2P7Rx([Hh)0.p)6
>!0E;W7W.W'4TfRjLf68<to=LfV8cY9YLf6Y3'!=P2P7;xc/V+(0.p)6
>+;h#O!MLfHM0!TQeI:0*;+Qe :49);QeIV=e#+%XfHMeO!M3M 54t;*$ 854;;W-(:54to[Lzg7;xwI/YT33hy
kG+;<#o!mlFhm0!tqEi:0*;+qE :49);qEiv=E#+%x:$J+uC(hHt33HY
kG+;$#o!mlFhm0!tqEi:0*;+qE :49);qEiv=E#+%x:$e+JM:%st33HY
kG+;i#o!mlFhm0!tqEi:0*;+qE :49);qEiv=E#+%x:$B+i#2U)t33HY
kG+;>#o!mlFhm0!tqEi:0*;+qE :49);qEiv=E#+%x:$$+L([ +t33HY
6
>!0E]W7W.W'4TfRjLf6Y\'F=Dj*b-W(9u-)IVh>*\h([
8
/)/12'4t'7w./\DEo2%[w3#/uE'U2'4t'7w./\DEo2%[w3#/uE'%2)!j+#: (==Uq
%nJ:774#0Qe7w-$[=3$ 85% q'Hjs7JWcE/Y0<R)*[*0
L
s2H('xFhmEo!m3m 54TO=lL86-J>sx:$J+iMs*Ht33JY
6
>!9x;W7W.W'4TfRjLf68<to=LfV8cY9YLf6Y-'+5X:$$++m$%hT33hy
kj:)74#0qE7W-$[=3$3t.d =3p3h+<5=3$ 55\$:38D-)CV[0_w'.')2%[w'y'#6*6w'.du=R[g)73X32%)*0.PW6
>!9xRW7W.W'4TfRjLf68<to=LfV8cY9YLf6Y-'+5X:$b+,cUHYT33hy
kGyp$#o!mlFhm0!tqEi:0*;+qE :49);qEivBE '9120!UHp/U(==5q
%nJ:(74#0Qe7w-$[=3$3T.D =3P3H+<5=3$ 55\$:/XjZxyp(I257$8
q
%21v$)cv=38dXr:'7]6(6Y\'7%67<0''7]Pj-4\;:38d-)cv[0_W'.')2%[W'Y'#6*6W'.DU===2)!J+(UH(==5Q
%21E$)cv=38dXr:'7]6(6Y\'7%67<0''7]Pj-4\;:38d-)cv[0_W'.')2%[W'Y'#6*6W'.DU===2s!5+(S (==uQ
%nJhP74#0Qe7w-$[=3$3T.D =3P3H+<5=3$ 55c o9120!J3e( (==5Q
%nJh774#0Qe7w-$[=3$3T.D =3P3H+<5=3$ 55c o912(!54#/*(==5Q
%nJh574#0Qe7w-$[=3$3T.D =3P3H+<5=3$ 55c o9120!Vj>[J(==5Q
%nJhs74#0Qe7w-$[=3$3T.D =3P3H+<5=3$ 55c o912)!]lwUV(==5Q
y
kGy7H#o!mlFhm0!tqEiv#E=+cU:p>#+:ubJ)>vi9! Tl
[
gd)[V2'4T'7W./\deO2%[W3#/3(/J2P7ux)IVY)0.pw6
Z
aA$3H:38D-)CV[0_w'.')20$w'y'#6*6w'.dH=R[g7>#+:ubV*e-u9! Vl
[
gd)[*2'4T'7W./\deO20$W3#/UP[*2P7ux3'J)90.pw6
Z
aA$3L:38D-)CV[0_w'.$T=R[g5B5P:/xszeUJ#[257i8
q
%nJh;74#0Qe7w-$[=3$M65% q'%Y)7JW)E/v5h3)*[*0
L
s2HC/xFhmEo!m3m 54Tr]lL86-uMux:$B+u3//+t33JY
6
>!9b3W7W.W'4TfRjLf6r*'F=Dj5hRW(9/-s$3j)*\h([
8
/z2%J$)CV=38DxR:'7]4i-,\sC'/H$X#Ph(1sS$<63$z
0
[O5Um9e7w54#0-4\-)*!2Qiz.b-4m9120!V,P/J(==uQ
y
kGy5H#o!mlFhm0!tqEi\.E=+c%JSi#+:iby9$Y,9! Tl
[
gd)'V2'4T'7W./\deO20$W3#/Uc:12P75x)(*Y90.pw6
Z
a9B5w7w.w'4tFrJlF6R*'f=dJ5J]w7w.w'4tFrJlF6R*'f=dJ5Hjw>eU+9$5)*[*0
[O5Uw9e7w54#0-4\-)*!2Qiz.b-3#912)!]l(2/(==uQ
y
kGy5>#o!mlFhm0!tqEi\.E=+c%J)>#+::b:)B5P9! Tl
[
ghc(XfHMeO!M3M 54tR]Ll86-U>$XfHMeO!M3M 54tR]Ll86-U>SXSZ=Jjm2257I8
/z2U:$)CV=38DxR:'7]4i-,\sC'/T$X#uh( +5=<63$z
0
[O5339e7w54#0-4\-)*!2Qiz.b-4)912s!Vjm'J(==uQ
y
kj)574#0qE7W-$[=3$m65% Q'%+074#0qE7W-$[=3$m65% Q'%+97vX3/*)90.PW6
>!9j;W7W.W'4TfRjLf6r*'F=Dj5<RW(9u-5$u,P*\h([
8
/)u/2'4t'7w./\DEo20$w3#/uC2U2'4t'7w./\DEo20$w3#/uC2/2)!3+Wuj(==Uq
%nJ)074#0Qe7w-$[=3$M65% q'%Ys7JWcEHjs=R)*[*0
L
s2HM2xFhmEo!m3m 54Tr]lL86-u>(x:$B++)2f+t33JY
6
>!9juW7W.W'4TfRjLf6r*'F=Dj5<uW(9 -)x;,3*\h([
8
/z2UV$)CV=38DxR:'7]4i-,\sCi%:$X#Hh$UV0e<63$z
0
[$;,:38d-)cv[0_W'.$t=r[G5<3l:38d-)cv[0_W'.$t=r[G5<3j::B)0$5h9! tL
s2H>/xFhmEo!m3m 54Tr]lL86-43sx:$$+PC:/et33JY
6
>!9h3W7W.W'4TfRjLf68<tR]LfV8cY9YLf6YR'7(LzP7JW3EVt5$3)*[*0
L
s2H>'xFhmEo!m3m 54H>2hw'#d=8qEiG93'+/x:$B+L3(v+t33HY
kGy)J#o!mlFhm0!tqEy)$Y'7=pLE54T'B w8X#+:$bV5$;L9! Tl
s2H>:xFhmEo!m3m 54H>2hw'#d=8qEiG93'+/x:$=+L(uUet33HY
6
>!9hRW7W.W'4TfRjLf9h5l=3[ 32e c912s!R432*(==5Q
%2/Y$)cv=38dXr:'72/Y*54 oroW8b#O!MLfHM0!TQeY)$y'7=Ple5% qSX+ZhJ3>(257>8
/z2/T$)CV=38DxR:'72/y*54 OROw8B#+:[bV5iv,9! yl
s2H>sxFhmEo!m3m 54H>2hw'#d=8q[J$X#Ph( V5J<632z
aA$v,:38D-)CV[0_w'$vHEqEZv,p'+'x:$=+3W(hst33HY
6
>!9<JW7W.W'4TfRjLf9h5l=3[ 32e>J4X:$$+4e'JYT33hy
kGy0=#o!mlFhm0!tqEy)$Y'7=pLE5b>.9120!5HE(*(==5q
%nJ+574#0Qe7w-$[=3JS9>eO+%i#-nB\:/XhZhV3(S257I8
/z2v)$)CV=38DxR:'72/y*54 OROw+NWw(9v-0e;4>*\H([
gd)I/2'4T'7W./\deO):Jv-)\;F<Lx+G#+:$B)(hyU9! tL
s2HpixFhmEo!m3m 54H>2hw'#d=8qKXM7jw)ejJ)=v)*[*0
[$Rh:38d-)cv[0_W'$VheQezV,P'J_,2'4T'7W./\deO):Jv-)\;F<Ll86RWeEJY*$R)*[F0
[O54w9e7w54#0-4\-)5I)SLf8Y%:=_k]$x#pH$/)*b<632Z
0
[$Rl:38d-)cv[0_W'$VheQeIV,P'+'XfHMeO!M3M 54h>2HW'.D=8Qiz.>#IH2/j*b<63SZ
aA$r,:38D-)CV[0_w'$vHEqEiv,p'+'x:$=+LE:Uyt33HY
kjyp74#0qE7W-$[=3js9>Eo2%I#-#-w7w.w'4tFrJlF9H5L=3$ 32Eo250:-#jw3e/:p><632z
aA$5P:38D-)CV[0_w'$vHEqEiv,p'+'x:$J+4MiU)t33HY
kGy9B#o!mlFhm0!tqEy)$Y'7]pLE5\u:/xHze3JM*\H9[
gd)2u2'4T'7W./\deO):Jv-)*;F<Lz57JW3E/S9I5)*[J0
L
s5H>9E7W54#0-4\-)5i)sliA1S):38D-)CV[0_w'$vHEqEiv,p'7]=up5\+:[b:9>3J9! yl
s5Hp9E7W54#0-4\-)5i)sliA1S):38D-)CV[0_w'$vHEqEiv,p'7]=up5\+:$bs9i3u9! Tl
s5H)9E7W54#0-4\-)5i)sliA1S):38D-)CV[0_w'$vHEqEiv,p'7]=up5\+:iby(<;,9! Tl
s2H)$xFhmEo!m3m 54H>2hw6o[299127!-4)(j(==5q
%nJY*74#0Qe7w-$[=3JS9>etZ57($x#4H'1);E<632Z
a9$]w7w.w'4tFrJlF9H5L=]G;j0#o!mlFhm0!tqEy)$Y'7]pLE54T'B1w8X#PhsjH(0.P)6
>!9IJW7W.W'4TfRjLf9h5l=]g;J0#+:UB+7$Jj9! tL
s5J39E7W54#0-4\-)5i)sliA1S):38D-)CV[0_w'$vHEqEiv,p'j_K27!YJM(h(==Uq
%nJt574#0Qe7w-$[=3JS9>etZ57($x#4H(JS)E<63$Z
a9i;w7w.w'4tFrJlF9H5L=]G;j0#o!mlFhm0!tqEy)$Y'7]pLE54T'B w8X#ih2feS><63$z
a9ivw7w.w'4tFrJlF9H5L=]G;j0#o!mlFhm0!tqEy)$Y'7]pLE5b>j9%-7<-L#*\H9[
ghwIXfHMeO!M3M 54h>2HW6O[299e7w54#0-4\-)5I)SLf6Y%:=_kx$=+I#:JET33hy