.SUBCKT C6651_INV CODIN NLVDSDIN VCC VSS
.PROT freelib
7W[p77\=6%0 H##/0%8z$+g/:\0U$+g/:\0U$4\YFb02,.qU(E*23.q;9jiI37:t-/X48_]x>IXl8_D)Tr[l$d\((9= 6_JW2%$*P[
aW'B$*p7*k2)12/1*(O*_uG.%w<-$*v0:k[]I2/s[T-%2\/s[Tf90ax.Q;9J0ax.%w<k>iYy<[<k>i37d)f\7D6_jw'%[*p7*;+)10
o7[k+)1269\((90;8_d)tB=Z37zF+)p( 90 f90aG#Q;9J0aG#%w<k3ZYy<[<k3Z37z/%=A tDz/%=I2v0%y m[*p[
4t'b12[MD#+5XAwYc :\0U$+g/:\>A$+ZK:]=U39ZWi]ajZ>-WF]a Td%tF9_Iyx#M+)1-9>#=+)P( ,\=:j[*P7[;2)126Y*((9=U6_JQ
$9$u6_jw<5$*v0:k']I2/-*(O*_ux.%w<k=iYy<[<k=i37z/[]A tDz/[]I2/sGT-%2\/sGTf9p(3+SV2)12Gy\((9$ 8_jw'B[*p[
aW2B[*p7z$+)p( 9[ f90/8_d)tB3Z37z/'=A tDz/'=I2/s0 -%2\/s0 f90a[#Q;9J0a[#%wO*IPjm\((6
eI/Yk::K. H#[W6b02<SgW6b02<SgW6b0261Z=<bX46_RxeIXl6_D)Tr$l$d*((9czy=+4:r[*V0:=+rX\8_JW'%$*P7*;2)12g9*((6
:269*((90;6_d)tB=i37zF2)p( 90Tf90aG.Q;9J0aG.%w<k3iYy<[<k3i37z/%]A tDz/%]I2v0%y m$*p7[;+)126y\((9=u8_jq
$9$u8_jw<5[*v0:k'=I2/-\(O*_ux#%w<k=ZYy<[<k=Z37z/[=A tDz/[=I2/sG -%2\/sG f9p(3+SV+)10
Zr\t;6
.UNPROT
.ENDS

.SUBCKT C6450 PINA PINB NLVDSDIN VCCN VSSN VSS VCC
+ RLVDSA3 RLVDSA2 RLVDSA1 RLVDSA0 RLVDSB3 RLVDSB2 RLVDSB1 RLVDSB0
.PROT freelib
6]c3779/%=e2<Sg :/Z
P779/%]= 7o#y%k[2p[
9U:\>A61DOZ9-A[##+y
6
-)$.% !M73H79/%910
L
+rwAm7u[gS+:\0u$X8
y)9;Dj9G\ [xP/9#+Y
6
-IP7'=6%0;qx>W;r- /1JW(6
-I77'=6%0;q=>W;r- /13W(6
-I57'=6%0;qb>W;r- /1-W(6
-Is7'=6%0;qj>W;r- /1;W(6
Z
P8X#5f\puxLj7:yIPv90+:/z
P8=#5f\puxL37:yIPv90P:/z
P8B#5f\puxL-7:yIPv90u:/z
P8J#5f\puxL;7:yIPv903:/z
0
[O3W7KJSP=0'a[X:$h+p#U1hT33jy
6
>!574/):1hX5H4:/XSZ$Rj>*\h([
8
/zuxF[$vJC-lL86vL=[%2p7-X#/UJ;0.PW6
Z
aAH#o%2/T5-E=+c/V-=rw(9%-pev4W*\H([
8
/zixF[$vJC-lL86vL=(UJ$X#3h' TS><63$z
0
[$#O%2/t5-e=+C/v-=5W7KJS(b0'F=DS*534::BhPI;h9! tL
s2J:3>y)i-F=R[g)>EP)912S!;+C(%(==Uq
y
kGV$)GH>$%/-,\s>sle5<#+:'bV(Jr)*[*0
L
s]w7kjs(B0'f=ds*5]u)9Ea9HUu[qIZ.HY'#'v2)!;PEi%(==Uq
%n :$)gh>$%/-,\S>SLE5$#+::Bt7x]U9! tL
[
gd3[Xf[$Vjc-Ll86Vl=[F2P73x#//:90.pw6
Z
a7B#o%2/T5-E=+c/V-Bjw7kjs(B0'f=ds*53,::bHpi;H9! Tl
s2PM9Ea9HUu[qIZ.HY'C/x:$B+Hps*Vt33JY
6
>h)74/):*jX5% q:HW7=#O%2/t5-e=+C/v-=-W>E :(j5)*[*0
[O34:3>Y)I-f=r[G)>ep39125!-,#(*(==uQ
y
kGH974/):1Hx5hu:/xTzXjPM$257i8
q
%n t$)gh>/ /-/VW(9%-7xVj#*\h([
8
/z[h2's5iW'3w3#/iWq :(<#+:'be0X3u9! Tl
[
gp#9eA9huU[Qiz.hu'3/*S$)gh>$%/-,\S>$LhPIRW>E%E0>u)*[*0
[O-+:3>Y)I-f=r[G)Iep($/2P7Rx([Hh)0.pw6
Z
aAB3w7kjs(B0'f=ds(5YH:/xJzHjP>*\H([
8
/C'xF[$vJC-lL86vJ=s*2's5iW'3w3#/iWqhy$H+P($Uyt33JY
kGJS74/):*Jx5% Q:*w*i#+:ubJ;XY)*[*0
L
s2u>9Ea9HUu[qIZ.HU'#/x:$B+PWs1et33JY
6
>j074/):*jX5% q:*W;=#O%2/t5-e=+C/t-EJW>E :(j5)*[*0
[O-h:3>Y)I-f=r[G)Ie,39125!53e[%(==uQ
y
kGJ(74/):*Jx5% Q:*w(>#+:[bV;i549! Tl
[
gUe9eA9huU[Qiz.hu'w(Xf[$Vjc-Ll86Vj=$H2)!3+wUJ(==uQ
%n%E$)gh>$%/-,\S>$Lt;7JWcEVSPE<63$Z
0
[O;+:3>Y)IJ'7KJS5xgY==8z$x#pH'%);h<632Z
aAJ3w7kjs(XEo%2/Jps9'+w[2p7UX#u*:50.PW6
>!sb#O%2/tP54/):%:[+e !=X:$=+jeUHvT33jy
kG)S74/):*:-)GH>'1a<5\#+9127!j4)uv(==5q
%nuS$)gh>$1W'S5Ic/>p-#c :/X+ZIJjeU257I8
/zuv2's5iW/lF[$vu(k-w84\w(9U-pJru3*\H9[
gdm2Xf[$Vj(QeA9h-+%\LzH##+:UBSP<349! YL
s23W9Ea9HU+=3>y)Bj/6q[787jwCefJ)ev)*[j0
[O;l:3>Y)IJ'7KJS5xgY==8z$x#jHSVh50.pw6
>!sE#O%2/tP54/):%:[+e !=X:$=++c:1jT33jy
kGsp74/):*:-)GH>'1a<5\#+9120!vHCiU(==Uq
%n/h$)gh>$1W'S5Ic/>p-#c :/XhZb5,9! tL
s2iC9Ea9HU+=3>y)Bj/6q[787jwWe%:*B])*[*0
L
s2iM9Ea9HU+=3>y)Bj/6q[a$X#Ph[hT9><632z
aAHvw7kjs(XEo%2/Jps9'+kx:$H+JM:jJt33HY
kGs074/):*:-)GH>'1a<5\/:/xezB;iE$257i8
/z:j2's5iW/lF[$vu(k-w8s#+:[bH*e-H9! yl
s2iW9Ea9HU+=3>y)Bj/6q[a$X#Ph(/e00.P)6
>!)>#O%2/tP54/):%:[+e %912)!yI)/*(==uQ
%n/E$)gh>$1W'S5Ic/>p-#gW(9V-*<;U>*\h([
8
/zi12's5iW'3w3#/iEqfJ*7jwMe1e5J<63$z
0
[<3W7KJS(b0'F=DS*5]Uw9eA9huU[Qiz.hy'#'H2)!JjP2 (==uQ
%nVj$)gh>$%/-,\S>SLE5I#+:'Bt;j5p9! tL
[
gdPUXf[$Vjc-Ll86Vl='%2P7;xcUV:s0.pw6
Z
a0H#o%2/T5-E=+c/V-B3w7kjs(B0'f=ds*5-u::bHSi5H9! Tl
s24p9Ea9HUu[qIZ.HY'C[x:$=+LC/%Jt33JY
6
>!0$#O%2/t5-eO%2/:(5*Kc9129!J,c$V(==uQ
%I*2'S5Iw'3W'S5I($LI/b#O%2/t5-e=+C/v-=3W3EujPI;)*[*0
[<yW7KJS(b0'7KJSPIet<'Xf[$Vjc-Ll86Vl=[ 27!Jp3: (==uQ
%nVE$)gh>$%/-)gh>/*W69-W(9 -(<R+e*\h([
gd)/Xf[$Vjc-Lf[$V+wQ$U57JW3EJY7j])*[*0
[O5p:3>Y)I-f=3>Y)xu'2b%2P73x('u)50.pw6
>!9b#O%2/t5-eO%2/:(5*Kc9127!3,3(%(==uQ
%nJ)$)gh>$%/-)gh>/*W69-W(9 -7E],P*\h([
gd):Xf[$Vjc-Lf[$V+wQ$U57JWcE1jsjy)*[*0
[O54:3>Y)I-f=3>Y)xu'2b%2P73x)U%E(0.pw6
>!9$#O%2/t5-eO%2/:(5*Kc9127!R+m'257I8
/z2*2's5iW'3w's5i($li/B#+:'bHpB]i9! Tl
s2HE9Ea9HUu[qEa9HjJ=]0J$X#uh'Uy90.PW6
>!9E#O%2/t5-eO%2/:(5*Kc9127!yj3:%(==uQ
%n*:$)gh>$%/-)gh>/*W69-W(9 -sxVjw*\h([
gdw[Xf[$Vjc-Lf[$V+wQ$U57JW3Eu:7IR)*[*0
[OuU:3>Y)I-f=3>Y)xu'2b%2P73xc:u)90.pw6
>!(j#O%2/t5-eO%2/:(5*Kc9127!;h>[*(==uQ
%n*S$)gh>$%/-)gh>/*W69-W(9 -*x;+)*\h([
gdwIXf[$Vjc-Lf[$V+wQ$U57JW3EJt)x;)*[*0
[Ouh:3>Y)I-f=3>Y)xu'2b%2P7-x)[Fh00.pw6
>!(I#O%2/t5-eO%2/:(5*Kc9127!Rlw(J(==uQ
%n*v$)gh>$%/-)gh>/*W69-W(9 -9x-h#*\h([
8
/z$f2's5iW'3w3#/iEq s$X#3h(%s9H<63$z
0
[>JW7KJS(b0'F=DS*533:3>Y)I-f=3>Y)xu'2b%2;!;heIJ(==yQ
%S 2'S5Iw'3W3#/IeQ )$)gh>$%/-,\S>SLh)7Vx($VY70.pw6
>!*b#O%2/t5-e=+C/v-=;W(9%-*>-4m*\h([
8
/zsU2's5iW'3w's5i($liv=#+:sbV;J-L9! Tl
s2L>9Ea9HUu[qEa9HjJ=]pH$X#Ph'v:S$<63$z
aA>rw7kjs(B0'7kjspiETO[x:$=+iW'vTt33JY
kGV974/):*Jx54/):1T-.dP:/xHzHvLM(257i8
/zs*2's5iW'3w's5i($liv=#+:[bs0i539! Tl
s2LE9Ea9HUu[qEa9HjJ=]pH$X#Ph[1:7><63$z
aA>]w7kjs(B0'7kjspiETO[x:$=+P3$jVt33JY
kGep74/):*Jx54/):1T-.dP:/xHzB34Wu257i8
/z( 2's5iW'3w's5i($liv=#+:'bH9=jP9! Tl
s2,C9Ea9HUu[qEa9HjJ=]pH$X#uh'U)7><63$z
aAe;w7kjs(B0'7kjspiETO[x:$B+iW/1+t33JY
kGe)74/):*Jx54/):1T-.dP:/xHzBr3Mu257i8
/z(v2's5iW'3w's5i($liv=#+:'b+5<;u9! Tl
s2,)9Ea9HUu[qEa9HjJ=]pH$X#uhiUJ(i<63$z
aAeUw7kjs(B0'7kjspiETO[x:$B+PM$1st33JY
kfV$)GH>$%/-)GH>/*w6y3w7kjs(B0'f=ds*534:[bJ*i-)*[*0
[E]W7KJS(b0'7KJSPIeto[Xf[$Vjc-Ll86Vl=[V27!Jp3: (==uQ
%n :P74/):*jX54/):1t-.Dp:/XhZ<5j#2257I8
/z[1H$)GH>$%/-)GH>/*w6y3w(9 -7<-,9! Tl
s2P('xF[$vJC-lF[$v+Wq$ 77jw3e*J7J-)*[*0
[O3+m9eA9huU[QeA9hJj=]Ph$x#pH2V+PI<63$Z
aA=ji:3>y)i-F=3>y)XU'2% 2p73Xpu*Ht33JY
kGHp<#o%2/T5-Eo%2/:(5*;39127!rJE( (==Uq
y
kGHp$#o%2/T5-E=+c/V-=Yw(9U-pev,3*\H([
8
/3/*2's5iW'3w3#/iEq T$)GH>$%/-)GH>/*w6y3w#ev)9$;)*[h0
[=Jl:3>Y)I-f=r[G)>epw9eA9huU[Qiz.hy'3SXSZxJh)$257I8
/z[1e$)GH>$%/-,\s>slH(7jw3ehT9JY)*[*0
L
s2P3/xF[$vJC-lL86vL=(%e$X#uh/*T9i<63$z
0
[=3p:3>Y)I-f=3>Y)xu'2%u2'S5Iw'3W3#/IeQ%h$E+4m2J)T33ly
kGH7B#o%2/T5-Eo%2/:(5*;M9129!-4p'*(==Uq
%[ )$)gh>$%/-)gh>/*W6Y;W7KJS(b0'F=DS*53,:[B:7=Vp9! tL
s3P>9Ea9HUu[qEa9HjJ=]p)$)GH>$%/-,\s>slH;73XCs*Jt33JY
kGH7<#o%2/T5-Eo%2/:(5*;M9127!vHC[U(==Uq
%n h974/):*jX54/):1t-.D3:/XjZj;p#2257I8
/z[ T$)GH>$%/-)GH>/*w6y;w(9 -;Bj+>*\H([
gd3[H2'S5Iw'3W'S5I($LIVj#+:[BE)IyU9! tL
s2P3(xF[$vJC-lF[$v+Wq$ S7jw3ejV)H])*[*0
[O3U(9eA9huU[QeA9hJj=]P)$x#pH$/:sI<63$Z
aA=-P:3>y)i-F=3>y)XU'2%U2p73X>$jV)0.PW6
>!7b-W7KJS(b0'7KJSPIetoUX:$=+lP$1hT33jy
kGH5J#o%2/T5-Eo%2/:(5*;M9127!U4>(f(==Uq
%n j)74/):*jX54/):1t-.D3:/XhZI54cS257I8
/z[%+$)GH>$%/-)GH>/*w6y;w(9 -0>33E*\H([
gd3'J2'S5Iw'3W'S5I($LIVj#+:[Bt*$5,9! tL
s2PC$xF[$vJC-lF[$v+Wq$ S7jw3evs5e])*[*0
[O3Ue9eA9huU[QeA9hJj=]P)$x#pHI*)P><63$Z
aA=-,:3>y)i-F=3>y)XU'2%U2p73XE//y90.PW6
>!7jJW7KJS(b0'7KJSPIetoUX:$=+Ic$/tT33jy
kGHS=#o%2/T5-Eo%2/:(5*;M9127!53C[257i8
/z[UJ$)GH>$%/-)GH>/*w6y;w(9U-p=YuE*\H([
gd3Uu2'S5Iw'3W'S5I($LIVj#+:[Bj*=Jp9! tL
s2PM:xF[$vJC-lF[$v+Wq$ S7jw3e1y*e;)*[*0
[O33P9eA9huU[QeA9hJj=]P)$x#UH'Fv(E<63$Z
0
[=;h:3>Y)I-f=3>Y)xu'2b 2'S5Iw'3W3#/IeQ )$=++3[VhT33jy
k )(74/):*Jx54/):1T-.zP:3>y)i-F=R[g)>EPM9 -5Jr39! Tl
s33E9Ea9HUu[qEa9HjJ=]0H$)GH>$%/-,\s>slH77]X3i1y*0.PE6
>!7j]W7KJS(b0'7KJSPIet<[X:$=+peU jT33hy
kGH)X#o%2/T5-Eo%2/:(5*k39127!j,3/f(==Uq
%n S774/):*jX54/):1t-.Zp:/XhZxJh($257I8
/z[/J$)GH>$%/-)GH>/*w693w(9 -5Xvi#*\H([
gd3:u2'S5Iw'3W'S5I($LI/=#+:[B:9I3p9! tL
s2P>:xF[$vJC-lF[$v+Wq$u77jw3e y7<])*[*0
[O3IP9eA9huU[QeA9hJj=]0h$x#pH[HhPj<63$Z
aA=vH:3>y)i-F=3>y)XU'2B 2p73Xp:1s90.PW6
>!7huW7KJS(b0'7KJSPIet<[X:$=+jcSJET33jy
kGH)>#o%2/T5-Eo%2/:(5*k39127!U+#s%(==Uq
%n S;74/):*jX54/):1t-.Zp:/XhZ<RIw$257I8
/z[v:$)GH>$%/-)GH>/*w693w(9 -)X-J)*\H([
gd3I 2'S5Iw'3W'S5I($LI/=#+:[Bh7=yp9! tL
s2Pp'xF[$vJC-lF[$v+Wq$u77jw3e/y0X-)*[*0
[O34m9eA9huU[QeA9hJj=]0h$x#pH/V:;$<63$Z
aA=ri:3>y)i-F=3>y)XU'2B 2p73X>s*+00.PW6
>!7<RW7KJS(b0'7KJSPIet<[X:$=+p#[ +T33jy
kGH0$#o%2/T5-Eo%2/:(5*k39127!rPEsj(==Uq
%n +(74/):*jX54/):1t-.Zp:/XhZ=ujc[257I8
/z[vV$)GH>$%/-)GH>/*w693w(9 -p=5H>*\H([
gd3IF2'S5Iw'3W'S5I($LI/=#+:[B:;E3)*[*0
[O3h(9eA9huU[QeA9hJj=]0h$x#pHIVt)<<63$Z
0
[=5p:3>Y)I-f=r[G)>e,m[Xf[$Vjc-Ll86Vl=(uj$h+p($uYT33jy
kGH9B#o%2/T5-E=+c/V-e;P:/xJzijip[257i8
q
%n Ys74/):*jX5% q:*W*x#+:UBhPI]49! tL
[
gp):Xf[$Vjc-Ll86Vj=S 2'S5Iw'3W3#/IwQH:$h+p($uYT33jy
kGH9<#o%2/T5-E=+c/T->3w(9U-7$r)*[*0
L
s2P)2xF[$vJC-lL86vJ=s%2p73X#[j:00.PW6
Z
a7$Uw7kjs(B0'f=ds(5Y3:3>y)i-F=R[g)iELC9/-7XU3)*\H([
gd32H2'S5Iw'3W3#/IwQH)$x#IH[ Es$<63$Z
0
[O3h#9eA9huU[Qiz.hu'3/*t$x#3HS*v)h<63$Z
0
[=u+:3>Y)I-f=r[G)Iep($J2'S5Iw'3W3#/IwQ :(I#IH[1ts$<63$Z
aA=UP:3>y)i-F=R[g)iEP($j2p7-Xp:fH00.PW6
Z
aA=Uu:3>y)i-F=R[g)iEL>9125!]+#(/(==Uq
y
k TS74/):*Jx5% Q:*w*<#o%2/T5-E=+c/T->vw>e :(J5)*[*0
[O3j>9eA9huU[Qiz.hu'eIX:$b+h3'JhT33jy
6
>!7IRW7KJS(b0'F=DS(5yl:/X)Zj34wI257I8
q
%[*Y$)gh>$%/-,\S>$Lv;74/):*jX5% q:*W*>#IH[1ts$<63$Z
aA=UJ:3>y)i-F=R[g)iEL#9125!-,3uj(==Uq
y
kGH(>#o%2/T5-E=+c/T-i5w(9U-5<j,E*\H([
8
/3$f2's5iW'3w3#/iWq*T$)GH>$%/-,\s>$lT97vX3/*)90.PW6
>!7>JW7KJS(b0'F=DS(5uj:/X)Z$-hw[257I8
q
%[Hh$8%Yob3,5z#O%2/tP54/):%:[+e !=XjZ=yjP*\h([
gpe'X33+DK[1%%$)gh>$1W'S5Ic/>p-#c :'BE5>R,9! tL
s3LM96L<yzFG'!2's5iW/lF[$vu(k-w84\w#e :7HY)*[*0
[O3l>96l<YZfg'!2P7;x>[1h90.p)6
>h*<#5F\PUXl-7:3>Y)IJ'7KJS5xgY==8z$b+4mI/)T33jy
k V97'=6%0/QB>w7kjs(XEo%2/Jps9'+w[2*!j+)[257i8
/3s*2:,9;<-+JU74/):*:-)GH>'1a<5\#+9 -7>;3M*\H([
gpeSX33+DK[1%%$)gh>$1W'S5Ic/>p-#c :[B:7$]39! tL
s2PE(x33+dk[1%%$X#Ph:U+;><632z
aA=]+:yIPv90-C x:$<+P)21Vt33JY
k e77'=6%0/QB>w7kjs(XEo%2/Jps9'+w[27!5H([j(==Uq
%[Fj$8%Yob3,5z#O%2/tP54/):%:[+e !=XhZxJlm[257I8
/z[f)$8%yOB3,5Z#+::by0$r)*[*0
[O3,>96l<YZfg'!2P7-xcSH)s0.pw6
>h;<#5F\PUXl-7:3>Y)IJ'7KJS5xgY==8z$=+4m/%YT33jy
k e97'=6%0/QB>w7kjs(XEo%2/Jps9'+w[25!vi>s*(==Uq
%n E(7'=6%0/qb>W(9 -5h-3>*\h9[
gp#SX33+DK[1%%$)gh>$1W'S5Ic/>p-#gWcEuh0E-)*[J0
[=],:YipV90-c Xf[$Vj(QeA9h-+%\Lz[7;x($Jh*0.pw6
>!5xJW;r- /- U19125!yhP2H(==5Q
%'1h$8%Yob3,5z#O%2/tP54/):%:[+e %9V-(j543*\h([
gU('X33+DK[1%%$)gh>$1W'S5Ic/>p-#gWcE%t7$y)*[J0
[O-+m96l<YZfg'!2P7-x#$Vhs0.p)6
>jPh#5F\PUXl-7:3>Y)IJ'7KJS5xgY==>2s!-+#'257I8
/C/v2:,9;<-+JU74/):*:-)GH>'1a<5\#+9 -)i5,M*\H([
gU(2X33+DK[1%%$)gh>$1W'S5Ic/>p-#gW3E*j7x-)*[*0
[O-+w96l<YZfg'!2P7yxeU t00.pw6
>jP>#5F\PUXl-7:3>Y)IJ'7KJS5xgY==>27!-jPS*(==uQ
%n%:;7'=6%0/qb>W(9 -5E3U>*\h9[
gdc[12:,9;<-+ju7JWPEFY7E])*[*0
[O-p396l<YZfg'!2P73xc:u:(0.pw6
>j7b#5F\PUXl-7:3>Y)IJ'7KJS5xgY==8z$I+pm:/(==uQ
%n%hs7'=6%0/qb>W(9*-)<-4m*\h([
gU3:X33+DK[1%%$)gh>$1W'S5Ic/>p-#c :2Bv7$-h9! tL
s2u3ix33+dk[1%%$X#uhsU)(<<63$z
aAB3H:yIPv90-C x:$=+i(2jVt33JY
k%H(7'=6%0/QB>w7kjs(XEo%2/Jps9'+w[27!j4)uh(==Uq
%n%h*7'=6%0/qb>W(9u-s>J4w*\h([
gU3(X33+DK[1%%$)gh>$1W'S5Ic/>p-#c :[B+5j-,9! tL
s-u(96L<yzFG'!2's5iW/lF[$vu(k-w84\w>e%J7$<63$z
aAB-P:yIPv90-C x:$=+HMi/)t33JY
k%J57'=6%0/QB>w7kjs(XEo%2/Jps9'+w[27!;u>uv(==Uq
%'%)$8%Yob3,5z#O%2/tP54/):%:[+e !=XjZ<;heS257I8
/z'%s$8%yOB3,5Z#+:'bs;H-u9! Tl
s-up96L<yzFG'!2's5iW/lF[$vu(k-w84\w3eUy;X;)*[j0
[O-U)96l<YZfg'!2P73xP/1YT33hy
6
>!5buW7KJS(b0'F=DS(5uI:/XhZb5+3$257I8
q
%'%v$)gh>$%/-,\S>$Lt074/):*jX5% q:*W(h#IH[1ts$<63$Z
aAB-,:3>y)i-F=R[g)iEJp9125!Ui>sf(==Uq
y
kGJSX#o%2/T5-E=+c/T-=jJC912)!533sj(==Uq
y
k%)774/):*Jx5% Q:*w7XU3:3>y)i-F=R[g)iEP($%2)!;P([h(==Uq
%n%)574/):*jX5% q:*W7xu3:/XSZ=-heI257I8
q
%'u)$)gh>$%/-,\S>SLEsx#O%2/t5-e=+C/v-E-,::B:)=<63$Z
aAB;i:3>y)i-F=R[g)>E,M/x:$B+PE[vJt33JY
6
>!5jRW7KJS(j0'F=D)*5-+:/XhZ<Jl9! tL
[
gdcUJ2'S5IwU3W3#/3eQ E$x#UHS S7b<63$Z
0
[O-3w9eA9hu3[Qiz.jy'3IX:$b+,#' vT33jy
6
>!5jyW7KJS(j0'F=D)*55lw912s!3h3$/(==uQ
y
kGJSe#o%2/TS-E=+cUV-B;w(9U-7$;Jp*\H([
8
/z'/:$)GH>$U/-,\sMsly*<#+:'b+(i3J9! Tl
[
gU>[Xf[$Vjm-Ll86;l='%2'S5IwU3W3#/3eQ%)$h+p($uST33jy
kGJ)B#o%2/TS-E=+cUV-B-w(9%-pBv43*\H([
8
/z'/)$)GH>$U/-,\sMsly*H#+:'b+pB;39! Tl
[
gU>:Xf[$Vjm-Ll86;l=2HY$)gh>$u/-,\SmSLY*<#IH[1tsh<63$Z
aABv4:3>y)i;F=R[gS>EHE2x:$H+H>:1Ht33JY
6
>j)$#O%2/ts-e=+Cuv-=yW7KJS(j0'F=D)*53,::Bhs<-U9! tL
s2u>$xF[$vJM-lL86;L=[h2p73XE'1:90.PW6
Z
a5HYw7kjs(J0'f=d)*55LE9Ea9HU3[qIZ.JY')s*2)!;P([v(==Uq
%n%S;74/):*)X5% qUHW9>yW(9%-*juj#*\h([
8
/z'v:$)GH>$U/-,\sMslHS7jwCe1:*<;)*[*0
L
s-439Ea9HU3[qIZ.JY'3:xF[$vJM-lL86;L=[v2)!3+Wu/(==Uq
%n%+574/):*)X5% qUHW7h#+:[B+Ph5l9! tL
[
gUPUXf[$Vjm-Ll86;l=[%2'S5IwU3W3#/3eQ )$h+p($uYT33jy
kGJ0H#o%2/TS-E=+cUV-=-w(9%-0B]PE*\H([
8
/z'v+$/-w(9%-(J]+W*\H9[
gdcIJ2Db#+:$B+;h;p9! tL
s2up$x>57jw3e*s;$r)*[j0
[O-4e9;j$x#pH/%vP><632Z
aABr,:F%2p7-X(svJ(0.PW6
Z
aAB5+:3>y)i;F=R[gS>EP)9127!]i)[%(==Uq
y
k%y774/):*)x5% Quhw7i#o%2/TS-E=+cUV-=5w>e1:SX5)*[*0
[O-hc9eA9hu3[Qiz.jy'3$X:$j++(I/ET33jy
6
>j9j#O%2/ts-e=+Cuv-$y3:3>Y)I;f=r[Gs>ehe:XSZ=Jjm2257I8
/z'js$)GH>$U/-,\sMsly*J#+:ubJ5>rH9! Tl
[
gU)IXf[$Vjm-Ll86;l=' 2'S5IwU3W3#/3eQ%:$h+p($uYT33jy
kGJ9$#o%2/TS-E=+cUV-B3w(9U-pB;Lp*\H([
8
/C2*2's5iWu3w's5i((li/=#o%2/TS-E=+cUV-$YL:(b)pJjL9! Vl
s2u)sxF[$vJM-lF[$v+#q$u77jw3e1+(B3)*[j0
[O-h#9eA9hu3[QeA9hJ,=]0h$x#pH/Fh;=<63$Z
aABU+:3>y)i;F=3>y)X]'2B 2p73X(ivJ70.PW6
>!5I3W7KJS(j0'7KJSPEet<[X:$=+3)'VYT33jy
kGJ(B#o%2/TS-Eo%2/:;5*k39127!UiE2%(==Uq
%n%ts74/):*)X54/):1E-.Zp:/XhZhR4m(257I8
/z'*s$)GH>$U/-)GH>/fw693w(9 -SXr43*\H([
gdc$V2'S5IwU3W'S5I((LI/=#+:'B:5EJj9! tL
s2uW2xF[$vJM-lF[$v+#q$u77jwCe%J7X;)*[*0
[O-jw9eA9hu3[QeA9hJ,=]0h$x#pHSHY*<<63$Z
aABUL:3>y)i;F=3>y)X]'2B 2p73X(shJ50.PW6
>!5I]W7KJS(j0'7KJSPEet<[X:$=++w'JST33jy
kGJ*X#o%2/TS-Eo%2/:;5*k39127!-4#[ (==Uq
%n%v774/):*)X54/):1E-.Zp:/XhZ=Jj)[257I8
q
%'Hj$)gh>$u/-,\SmSLY*E#O%2/ts-eO%2/:;5*K39 -)jRl)*\h([
gUeUXf[$Vjm-Ll86;l=2HE$)gh>$u/-)gh>/FW693W3E1hs<u)*[*0
[O-l>9eA9hu3[Qiz.jy')SF2P7;x)'*j70.pw6
Z
a5>rw7kjs(J0'f=d)*55,(9Ea9HU3[qIZ.JY')sf2)!;P([h(==Uq
%n%v974/):*)X5% qUHW9EJW(9/-P=y4e*\h([
8
/z'hT$)GH>/ /-/5w(9%-)=Y+>*\H([
8
/z'hV$)GH>/ /-/;w(9/-7X3L#*\H([
8
/Csf2's5iW'3w's5i($li/H#o%2/T5-E=+c/V-e-,:(bJ9X-,9! Vl
s2u#/xF[$vJC-lF[$v+Wq$u)7jw#evy9B<63$z
a5e3w7kjs(B0'7kjspiET<:xF[$vJC-lL86vL=(UH$=+i($%st33JY
kGJ;B#o%2/T5-Eo%2/:(5*k>9125!ju>(j(==Uq
%n%Es74/):*jX54/):1t-.ZI:/XjZ=V4mS257I8
/z'fs$)GH>$%/-)GH>/*w69vw(9 -)H;iC*\H([
gdc(V2'S5Iw'3W'S5I($LI/h#+:[BS)E5,9! tL
s2u#2xF[$vJC-lF[$v+Wq$u)7jw3ev:5$-)*[*0
[O-,w9eA9huU[QeA9hJj=]0S$x#pH(%);I<63$Z
aAB]L:3>y)i-F=3>y)XU'2B/2p7-XC( )00.PW6
>!5E]W7KJS(b0'7KJSPIet<:X:$=+UPSH)T33jy
kG)pX#o%2/T5-Eo%2/:(5*k>9127!rHM:257i8
/zu1H$)GH>$%/-)GH>/*w69vw(9 -*HUL3*\H([
gdm/%2'S5Iw'3W'S5I($LI/h#+:[Bj*$]39! tL
s;+M9Ea9HUu[qEa9HjJ=]0s$)GH>$%/-,\s>sleS=#Ph/ H)=<63$z
aAJji:3>y)i-F=3>y)XU'2B/2p73X>'hVS0.PW6
>!sxRW7KJS(b0'7KJSPIet<:X:$=+4m[*)T33jy
kG)p$#o%2/T5-Eo%2/:(5*k>9127!-L3(h(==Uq
%nu:(74/):*jX54/):1t-.ZI:/XhZI5h($257I8
q
%U1v$)gh>$u/-)gh>/FW6YVW7KJS(j0'F=D)*5-U:(B)9j])*[H0
[O;+#9eA9hu3[QeA9hJ,=]PS$x#4HSVE7><63$Z
aS=jw7kjs(J0'7kjspeETO:xF[$vJM-lL86;L='127!jP3: (==Uq
%U h$)gh>$u/-)gh>/FW6YVW7KJS(j0'F=D)*5-+:[Bj0ERl9! tL
s233'xF[$vJM-lF[$v+#q$ )7jw3e1:pJr)*[*0
[O;pm9eA9hu3[QeA9hJ,=]PS$x#UH[*h;b<63$Z
aAJ3i:3>y)i;F=3>y)X]'2%/2p73X($ e50.PW6
>!s=RW7KJS(j0'7KJSPEeto:X:$=+4)( tT33jy
kG)7$#o%2/TS-Eo%2/:;5*;>9127!33)(v(==Uq
%nuh(74/):*)X54/):1E-.DI:/XjZ>]hc(257I8
/zu V$)GH>$U/-)GH>/fw6yvw(9%-SJ5u3*\H([
gdm[F2'S5IwU3W'S5I((LIVh#+:[Bj;h])*[*0
[O;U(9eA9hu3[QeA9hJ,=]PS$x#UH:uh5E<63$Z
aAJ-P:3>y)i;F=3>y)X]'2%/2p73X((vT*0.PW6
>!sb-W7KJS(j0'7KJSPEeto:X:$=+jc' YT33jy
kG)5J#o%2/TS-Eo%2/:;5*;>9127!-JE'U(==Uq
%nuj)74/):*)X54/):1E-.DI:/XjZb5he[257I8
/zu%+$)GH>$U/-)GH>/fw6yvw(9 -7=3+p*\H([
gdm'J2'S5IwU3W'S5I((LIVh#+:'Bj(<uU9! tL
s23C$xF[$vJM-lF[$v+#q$ )7jw3ev)S=U)*[*0
L
s;uE9Ea9HU3[qEa9Hj,=]p)$)GH>$U/-,\sMslH*7]XM2Uet33LY
kG)5e#o%2/TS-Eo%2/:;5*;M9120!;,>'j(==Uq
%Uu:$)gh>$u/-)gh>/FW6Y;W7KJS(j0'F=D)*53h:[Bj*=RU9! tL
s23M[xF[$vJM-lF[$v+#q$ S7jw3e :)$])*[*0
[O;3c9eA9hu3[QeA9hJ,=]P)$x#pH'FY*h<63$Z
aAJ;3:3>y)i;F=3>y)X]'2%U2p73XC2/Ht33JY
kG)SH#o%2/TS-Eo%2/:;5*;M9127!3,E[f(==Uq
%nu)074/):*)X54/):1E-.D3:/XhZjJ4)*\h([
gdmUJ2'S5IwU3W'S5I((LIVj#+:[Bj*<]49! tL
s23M$xF[$vJM-lF[$v+#q$ S7jwCe%+peU)*[*0
[O;3e9eA9hu3[QeA9hJ,=]P)$x#pHSFv(h<63$Z
aAJ;,:3>y)i;F=3>y)X]'2%U2p73XMu*H00.PW6
>!shJW7KJS(j0'7KJSPEetoUX:$b++#2*tT33jy
kG))=#o%2/TS-Eo%2/:;5*;M9127!]3>(257i8
/zu/J$)GH>$U/-)GH>/fw6y;w(9 -*HY43*\H([
gdm:u2'S5IwU3W'S5I((LIVj#+:[BYPIJU9! tL
s23>:xF[$vJM-lF[$v+#q$ S7jw3e%e5<;)*[*0
[O;IP9eA9hu3[QeA9hJ,=]P)$x#UHIVhsI<63$Z
aAJvH:3>y)i;F=3>y)X]'2%U2p73XEiUs50.PW6
>!shuW7KJS(j0'7KJSPEetoUX:$b+Um/HtT33jy
kUs*74/):*)x54/):1e-.d3:3>y)i;F=R[gS>EP)9 -p=3i3*\H([
gdm:F2'S5IwU3W'S5I((LIVj#+:[Bjs<3I9! tL
s23p/xF[$vJM-lF[$v+#q$ S7jw3e1s*<Y)*[*0
L
s23p[xF[$vJC-lL86vJ=$%2p7;XCivT)0.PW6
Z
aS<-w7kjs(B0'f=ds(5U3:3>y)i-F=R[g)iEJC9/-7XU3)*\H([
gdmIu2'S5Iw'3W3#/IwQ*)$x#pH$Vh(><63$Z
0
[O;4>9eA9huU[Qiz.hu'3/*:$x#UH$VY7I<63$Z
0
[jR4:3>Y)I-f=r[G)Iep($ 2'S5Iw'3W3#/IwQ :(x#IH[1ts$<63$Z
aAJrH:3>y)i-F=R[g)iEP($ 2p7-X)/1y00.PW6
Z
aAJrJ:3>y)i;F=R[gS$3L:/x)z$-H)(257i8
q
%nu+*74/):*)X5% qUJh(7JW>E t(E3)*[*0
L
s;4#9Ea9HU3[qIZ.J5P)9Ea9HU3[qIZ.J5PW9/-SB5i#*\H([
gdm212'S5IwU3W3#/3)[J2P7Vxc:*S)0.pw6
Z
aS$3w7kjs(J0'f=d)9=]w7kjs(J0'f=d)9=Yw>eU)9B])*[*0
[O;hc9eA9hu3[Qiz.j5p#912)!]I#2*(==uQ
y
kG)9J#o%2/TS-E=+cUy7H#+:ubH;<]J9! Tl
[
g3):Xf[$Vjm-Ll86;h3IXf[$Vjm-Ll86;h3:XSZjJ,($257I8
/zuj+$)GH>$U/-,\sM2 +$X#ihi*+)B<63$z
0
[O;h)9eA9hu3[Qiz.=R3:/XhZIuIP'257I8
q
%UJt$)gh>$u/-,\S3I%2'S5IwU3W3#/pPUXSZ=Jjm2257I8
/zujV$)GH>$U/-,\s3i%2p7-XWi H50.PW6
Z
aAJ5,:3>y)i;F=R[g7<Uw(9%-7iUP3*\H([
8
/M$12's5iWu3w3#/Pp2xF[$vJM-lL8634W9/-7XU3)*\H([
gdm$ 2'S5IwU3W3#/pP2X:$j+UP'*(==uQ
y
kG)(B#o%2/TS-E=+cUy7B#+:ube7=-H9! Tl
[
g3wUXf[$Vjm-Ll86;h3UXf[$Vjm-Ll86;h3'XSZ=Jjm2257I8
/zu*s$)GH>$U/-,\sM2 )$X#uhuf)5J<63$z
0
[O;jP9eA9hu3[Qiz.=R4:/X)Z<yl>:257I8
q
%U*Y$)gh>$u/-,\S3I/2'S5IwU3W3#/pPIXSZ=Jjm2257I8
/zu*T$)GH>$U/-,\s3i/2p7-X('1V(0.PW6
Z
aAJUL:3>y)i;F=R[g7<]w(9U-pHYLE*\H([
8
/M$f2's5iWu3w3#/PpsxF[$vJM-lL8634#9/-7XU3)*\H([
gdmS12'S5IwU3W3#/pPSX:$=+UcU ET33jy
6
>!s>3W7KJS(j0'F=Dh)I#+:UBt;<;l9! tL
[
g3e'Xf[$Vjm-Ll863I)9eA9hu3[Qiz.=Vj::BhPI;h9! tL
s23EuxF[$vJM-lL863i)9125!r3W(j(==Uq
y
kG)*H#o%2/TS-E=+c s07jw3efJ*iU)*[*0
L
s;Lp9Ea9HU3[qIZ.=vi:3>y)i;F=R[g7Hrw>e :(J5)*[*0
[O;l)9eA9hu3[Qiz.=VI:/XjZ<R4#2257I8
q
%nuv(74/):*)X5% q[Vh$x#3H2H+P><63$Z
0
[jyl:3>Y)I;f=r[G7<JW7KJS(j0'F=Dh0=#IH[1ts$<63$Z
aAJY,:3>y)i;F=R[g7<jw(9 -;e3uC*\H([
8
/zuf:$)GH>$U/-,\s3:f2p73XC2js*0.PW6
Z
aSe3w7kjs(J0'f=dH)>#o%2/TS-E=+c s;7vX3/*)90.PW6
>!sE-W7KJS(j0'F=Dh)>#+:UB:0IVp9! tL
[
g3#UXf[$Vjc-Lf[$V+wQ$ 574/):*jX5% q:HW5=#pH'/t(=<63$Z
aSevw7kjs(B0'7kjspiETO'xF[$vJC-lL86vL=' 27!jP3i (==Uq
%UF+$)gh>$%/-)gh>/*W6Y-W7KJS(b0'F=DS*53,:(Bh9hVp9! vL
s23#2xF[$vJC-lF[$v+Wq$ 57jw3e e7>;)*[j0
[O;,w9eA9huU[QeA9hJj=]Pj$x#UH:u+7<<63$Z
aAJ]L:3>y)i-F=3>y)XU'2%%2p73X3(1+50.PW6
>!sE]W7KJS(b0'7KJSPIeto'X:$=+pe'FvT33jy
kGspX#o%2/T5-Eo%2/:(5*;C9127!3J#( (==Uq
%n/:774/):*jX54/):1t-.DU:/XhZ=]jm(257I8
/z:1J$)GH>$%/-)GH>/*w6y-w(9 -pivHM*\H([
gd>/u2'S5Iw'3W'S5I($LIVb#+:[B)(E5l9! tL
s2i(:xF[$vJC-lF[$v+Wq$ 57jw3e1)0XU)*[*0
[OV+P9eA9huU[QeA9hJj=]Pj$x#pH[Fv*><63$Z
aAHjH:3>y)i-F=3>y)XU'2%%2p73X(' (==Uq
%n/:(74/):*jX54/):1t-.DU:/XhZjVjw*\h([
gd>/H2'S5Iw'3W'S5I($LIVb#+:[Bh9jy,9! tL
s2i((xF[$vJC-lF[$v+Wq$ 57jw3e V)e<63$z
aAH3+:3>y)i-F=3>y)XU'2%%2p73XW/h)(0.PW6
>!)=3W7KJS(b0'7KJSPIeto'X:$=+hPS tT33jy
kGs7B#o%2/T5-Eo%2/:(5*;C9127!5uC[%(==Uq
%n/hs74/):*jX54/):1t-.DU:/XjZbVlm(257I8
/z: s$)GH>$%/-)GH>/*w6y-w(9%-5HUiE*\H([
gd>[V2'S5Iw'3W'S5I($LIVb#+:[BjsEVh9! tL
[
gI32Xf[$Vjc-Lf[$V+wQ$ )74/):*jX5% q:HW7I#pH'uY9j<63$Z
a)=Uw7kjs(B0'7kjspiETO:xF[$vJC-lL86vL=[v2*!]iM(%(==Yq
%n/h*74/):*jX54/):1t-.DI:/XhZ$-43I257$8
/>[f2's5iW'3w's5i($livH#o%2/T5-E=+c/V-=Uw3e1H7<3)*[*0
[OVU(9eA9huU[QeA9hJj=]PS$x#pH[/h9E<63$Z
aAH-P:3>y)i-F=3>y)XU'2%/2p73X3' J(0.PW6
>!)b-W7KJS(b0'7KJSPIeto:X:$=+p3'FhT33jy
kGs5J#o%2/T5-Eo%2/:(5*;>9127!jJ(/f(==Uq
%n/j)74/):*jX54/):1t-.DI:/XhZIRhcU257I8
/z:%+$)GH>$%/-)GH>/*w6yvw(9 -7Xr+)*\H([
gd>'J2'S5Iw'3W'S5I($LIVh#+:[BSPI-l9! tL
s2iC$xF[$vJC-lF[$v+Wq$ )7jw3e*)*H3)*[*0
[OVUe9eA9huU[QeA9hJj=]PS$x#pH$u:50.pw6
>!)b]W7KJS(b0'7KJSPIeto:X:$=+I>S%vT33jy
kGsSX#o%2/T5-Eo%2/:(5*;>9125!Y4Wiv(==Uq
%n/)774/):*jX54/):1t-.DI:/XjZh5jc[257I8
/z:UJ$)GH>$%/-)GH>/*w6yvw(9%-S>r3W*\H([
8
/>uU2's5iWu3w's5i((li/H#o%2/TS-E=+cUV-$Y4:[bJ7BjL9! Tl
sv3>9Ea9HU3[qEa9Hj,=]0s$)GH>$U/-,\sMsly*<#Ph/ s;0.PW6
>Ss<#O%2/ts-eO%2/:;5*K>9eA9hu3[Qiz.jy')S/2*!u+P/H(==yQ
%n/)974/):*)X54/):1E-.ZI:/XhZI5le'257$8
/z:UT$)GH>$U/-)GH>/fw69vw(9 -p$r3)*\H([
gd>UH2'S5IwU3W'S5I((LI/h#+:[B+;$])*[*0
[OV3#9eA9hu3[QeA9hJ,=]0S$x#pH[u)0h<63$Z
aAHv+:3>y)i;F=3>y)X]'2B/2p73X3(%H50.PW6
>!)h3W7KJS(j0'7KJSPEet<:X:$=+43I/vT33jy
kGs)B#o%2/TS-Eo%2/:;5*k>9127!5iCiv(==Uq
%n/Ss74/):*)X54/):1E-.ZI:/XhZx;p#2257I8
/z:/s$)GH>$U/-)GH>/fw69vw(9 -S>]H)*\H([
8
/>:v2's5iWu3w's5i((livB#o%2/TS-E=+cUV-B-w3e +)=;)*[*0
[hVh:3>Y)I;f=3>Y)x]'2%%2'S5IwU3W3#/3eQ%:$E+pP/*hT33ly
kGs)i#o%2/TS-Eo%2/:;5*;C9127!-H#'v(==5q
%n/S*74/):*)X54/):1E-.DU:/XhZ>;pm:257I8
/z:/e$)GH>$U/-)GH>/fw6y-w(9 -7e3L>*\H([
gd>I12'S5IwU3W'S5I((LIVb#+:[BY(=JI9! tL
sv439Ea9HU3[qEa9Hj,=]pJ$)GH>$U/-,\sMslJ573X([/et33JY
kGs0B#o%2/TS-Eo%2/:;5*;C9127!vi#:f(==Uq
%n/+s74/):*)X54/):1E-.DU:/XhZ=]l#I257I8
/z:vs$)GH>$U/-)GH>/fw6y-w(9 -5=UL#*\H([
gd>IV2'S5IwU3W'S5I((LIVb#+:[BY7Iy,9! tL
s2ip2xF[$vJM-lF[$v+#q$ 57jw3e/HSXr)*[*0
[OV4w9eA9hu3[QeA9hJ,=]Pj$x#pH/FE(h<63$Z
aAHrL:3>y)i;F=3>y)X]'2%%2p73XCujH*0.PW6
>!)<]W7KJS(j0'7KJSPEeto'X:$=+UP2%ET33jy
kGs9X#o%2/TS-Eo%2/:;5*;C9127!-PC:U(==Uq
%n/Y774/):*)X54/):1E-.DU:/XhZ=-l(S257I8
/z:jJ$)GH>$U/-)GH>/fw6y-w(9 -)e;uW*\H([
8
/>2U2's5iWu3w's5i((li/J#o%2/TS-E=+cUV-=vw3e%H;JU)*[*0
[OVh>9eA9hu3[QeA9hJ,=]0)$x#pH(/)(0.pw6
>S9<#O%2/ts-eO%2/:;5*Km9eA9hu3[Qiz.jy'3UXvZ>yjw:257>8
/z:jy$)GH>$U/-)GH>/fw69;w(9 -5=]J>*\H9[
gd>2*2'S5IwU3W'S5I((LI/j#+:'Bh5=R39! tL
s2i)sxF[$vJM-lF[$v+#q$uS7jw3efH5>;)*[*0
[OVh#9eA9hu3[QeA9hJ,=]0)$x#pH[%h;0.pw6
>!)IJW7KJS(j0'7KJSPEet<UX:$=++>:u(==uQ
%n/t774/):*)X54/):1E-.Z3:/XhZhyU3(257I8
/>$%2's5iWu3w's5i((li/J#o%2/TS-E=+cUV-=vw3e1H)e<63$z
aAHU3:3>y)i;F=3>y)X]'2BU2p73XM(fe*0.PW6
>!)IVW7KJS(j0'7KJSPEet<UX:$=+jeUFtT33jy
kGs(<#o%2/TS-Eo%2/:;5*kM9127!YPCi*(==Uq
%n/t974/):*)X54/):1E-.Z3:/XhZj5U)$257I8
/z:*T$)GH>$U/-)GH>/fw69;w(9%-0Hj4#*\H([
gd>$H2'S5IwU3W'S5I((LI/j#+:[Bv7h;p9! tL
[
gIw(Xf[$Vjm-Lf[$V+#Q$ 774/):*)X5% qUHW7>#pH[V+0><63$Z
a)>jw7kjs(J0'7kjspeETO[xF[$vJM-lL86;L=[j2;!34)sh(==Yq
%n/v774/):*)X54/):1E-.Dp:/XEZb3p)[257I8
/z:hJ$)GH>$U/-)GH>/fw6y3w(9 -;XjJC*\H([
gd>Su2'S5IwU3W'S5I((LIV=#+:[BS9$5h9! tL
s2iE:xF[$vJM-lF[$v+#q$ 77jw3eh+5Jr)*[*0
[OVlP9eA9hu3[QeA9hJ,=]Ph$x#pH//S5j<63$Z
aAHYH:3>y)i;F=3>y)X]'2% 2p73X('%JS0.PW6
>!)>uW7KJS(j0'7KJSPEeto[X:$=+U3$V+T33jy
kGs*>#o%2/TS-Eo%2/:;5*;39125!-+Ms (==Uq
%n/v;74/):*)X54/):1E-.Dp:/XhZb;+P'257I8
/>(12's5iWu3w's5i((liv=#o%2/TS-E=+cUV-=Yw3e1H)e<63$z
aAH]P:3>y)i;F=3>y)X]'2% 2p73XCi*J70.PW6
>!)E-W7KJS(j0'7KJSPEeto[X:$=+I#:u+T33jy
kGs;J#o%2/TS-Eo%2/:;5*;39127!U,([h(==Uq
%n/E)74/):*)X54/):1E-.Dp:/XhZ$R3>(257I8
/z:f+$)GH>$U/-)GH>/fw6y3w(9 -)>jJ#*\H([
gd>(J2'S5IwU3W'S5I((LIV=#+:[B+5xVj9! tL
[
gI#$Xf[$Vjc-Lf[$V+)Q$U574/):*jX5% q:*W7xuh:SBv7I-49! vL
s2i#sxF[$vJC-lF[$v+)q$u57jw>eh)7e-)*[j0
[h],:3>Y)I-f=3>Y)x5'2b%2'S5Iw'3W3#/IwQ :(<#pHUH+*=<63$Z
a0Xjw7kjs(B0'7kjsp$ET<'xF[$vJC-lL86vJ=[1T073X([j+;0.PW6
>!0x3W7KJS(b0'7KJSP$et<'X:$=+,w/*jT33jy
kG+pB#o%2/T5-Eo%2/:95*kC9127!3uE/%(==Uq
%nV:s74/):*jX54/):1Y-.ZU:/XhZxu4P$257I8
/zi1s$)GH>$%/-)GH>/jw69-w(9 -SJv+E*\H([
gdP/V2'S5Iw'3W'S5I(2LI/b#+:[Bj*<Rp9! tL
s24(2xF[$vJC-lF[$v+)q$u57jw3e%V9i3)*[*0
[OR+w9eA9huU[QeA9hJh=]0j$x#pH[J)Pj<63$Z
aA<jL:3>y)i-F=3>y)X5'2B%2p73X321e90.PW6
>!0x]W7KJS(b0'7KJSP$et<'X:$=++e$VtT33jy
kG+7X#o%2/T5-Eo%2/:95*kC9127!-+Eif(==Uq
%nVh774/):*jX54/):1Y-.ZU:/XhZb34w(257I8
/zi J$)GH>$%/-)GH>/jw69-w(9 -0>rP>*\H([
gdP[u2'S5Iw'3W'S5I(2LI/b#+:[Bj9j3I9! tL
s243:xF[$vJC-lF[$v+)q$u57jw3e1y*=Y)*[*0
[ORpP9eA9huU[QeA9hJh=]0j$x#pH[F:*><63$Z
aA<3H:3>y)i-F=3>y)X5'2B%2p73X(( s)0.PW6
>!0=uW7KJS(b0'7KJSP$et<'X:$=+Uc:FYT33jy
kG+7>#o%2/T5-Eo%2/:95*kC9127!-4C2j(==Uq
%nVh;74/):*jX54/):1Y-.ZU:/XhZb;,e[257I8
/zi%:$)GH>$%/-)GH>/jw69-w(9 -pH5+W*\H([
gdP' 2'S5Iw'3W'S5I(2LI/b#+:[Bj)jJj9! tL
s24C'xF[$vJC-lF[$v+)q$u57jw3e1V*e5)*[*0
[ORUm9eA9huU[QeA9hJh=]0j$x#pH/1E7h<63$Z
0
[<-I:3>Y)I-f=3>Y)x5'2%%2'S5Iw'3W3#/IwQH+$=++3[/hT33jy
kvJ074/):*Jx54/):1y-.du:3>y)i-F=R[g)iELp9 -5B5HE*\H([
g4c2Xf[$Vjc-Lf[$V+)Q$ 574/):*jX5% q:*W*$#,H:1vs$<63SZ
aA<-J:3>y)i-F=3>y)X5'2%%2p7YXp'1H*0.PW6
>!0byW7KJS(b0'7KJSP$eto'X:$=+h((uhT33jy
kG+5e#o%2/T5-Eo%2/:95*;C9127!j33' (==Uq
%nV)P74/):*jX54/):1Y-.DU:/XhZh3UcS257I8
/ziUH$)GH>$%/-)GH>/jw6y-w(9 -7B-LC*\H([
gdPU%2'S5Iw'3W'S5I(2LIVb#+:[Bh(byl9! tL
s24MuxF[$vJC-lF[$v+)q$ 57jw3eUH(><63$z
aA<;i:3>y)i-F=3>y)X5'2%%2p73XCs T(0.PW6
>!0jRW7KJS(b0'7KJSP$eto'X:$=+4>I1YT33jy
kG+S$#o%2/T5-Eo%2/:95*;C9127!vHCsv(==Uq
%nV)(74/):*jX54/):1Y-.DU:/XhZhV3P:257I8
/ziUV$)GH>$%/-)GH>/jw6y-w(9 -S=j+W*\H([
gdPUF2'S5Iw'3W'S5I(2LIVb#+:[Bjs$Vl9! tL
s24>/xF[$vJC-lF[$v+)q$ 57jw3e1s7J3)*[*0
[ORI39eA9huU[QeA9hJh=]Pj$x#pH/ :)0.pw6
>!0h-W7KJS(b0'7KJSP$eto'X:$=++#/VET33jy
kG+)J#o%2/T5-Eo%2/:95*;C9127!-3p/%(==Uq
%nVS)74/):*jX54/):1Y-.DU:/XhZx]I#(257I8
/zi/+$)GH>$%/-)GH>/jw6y-w(9 -5J5P>*\H([
gdP:J2'S5Iw'3W'S5I(2LIVb#+:'B:)b3p9! tL
s24>$xF[$vJC-lF[$v+)q$ 57jw3e/+(<r)*[*0
[ORIe9eA9huU[QeA9hJh=]Pj$x#pHS*Y7><63$Z
aA<v,:3>y)i-F=3>y)X5'2%%2p73X#$1JS0.PW6
>!0<JW7KJS(b0'7KJSP$eto'X:$b++c/u)T33jy
kG+0=#o%2/T5-Eo%2/:95*;C9127!YL3[%(==Uq
%nV+574/):*jX54/):1Y-.DU:/XjZ=;l#'257I8
/ziv)$)GH>$%/-)GH>/jw6y-w(9 -SH]up*\H([
gdPI/2'S5Iw'3W'S5I(2LIVb#+:[Bt(Eu,9! tL
s24pixF[$vJC-lF[$v+)q$ 57jw3ejT;J<63$z
aA<rH:3>y)i-F=3>y)X5'2%%2p7-XEsUy70.PW6
>!0<uW7KJS(b0'7KJSP$eto'X:$b+4mSFhT33jy
kG+0>#o%2/T5-Eo%2/:95*;C9125!r4E'257i8
/zive$)GH>$%/-)GH>/jw6y-w(9%-;$;3W*\H([
gdP212'S5Iw'3W'S5I(2LIVb#+:'Bt(jV49! tL
s24)[xF[$vJC-lF[$v+)q$ 57jwCe*y(i5)*[*0
[ORhc9eA9huU[QeA9hJh=]Pj$x#pH'Vh9h<63$Z
aA<53:3>y)i-F=3>y)X5'2%%2p73XE[fTS0.PW6
Z
a0$vw7kjs(B0'7kjsp$ETO2xF[$vJC-lL86vJ=sv2;!-u3sU(==Yq
%nVY074/):*jX54/):1Y-.Dh:/XjZh]I>[257$8
/p2j2's5iW'3w's5i(2liv$#o%2/T5-E=+c/T->5w3e%)0iU)*[*0
[<5j:3>Y)I-f=3>Y)x5'2%J2'S5Iw'3W3#/IwQHY$=++3:F(==uQ
%nVY*74/):*jX54/):1Y-.Dh:/XhZxJUP'257I8
/zije$)GH>$%/-)GH>/jw6y5w(9 -S=;3p*\H([
gdP$12'S5Iw'3W'S5I(2LIV$#+:[B)5bul9! tL
s24W[xF[$vJC-lF[$v+)q$ 97jw3e1+pB<63$z
aA<Uu:3>y)i-F=3>y)X5'2%j2p73X((/:*0.PW6
>!0I;W7KJS(b0'7KJSP$eto2X:$=+Uw'JjT33jy
kG+(H#o%2/T5-Eo%2/:95*;)9127!j,p/ (==Uq
%nVt074/):*jX54/):1Y-.Dh:/XhZ=53)I257I8
/zi*y$)GH>$%/-)GH>/jw6y5w(9 -7>rJC*\H([
gdP$*2'S5Iw'3W'S5I(2LIV$#+:[B:*<V49! tL
s24WsxF[$vJC-lF[$v+)q$ 97jw3eU:;>v)*[*0
[ORj#9eA9huU[QeA9hJh=]PY$x#pH'/Y*I<63$Z
aA<Y+:3>y)i-F=3>y)X5'2%j2p73X(u yt33JY
kG+*=#o%2/T5-Eo%2/:95*;)9127!-i#2*(==Uq
%nVv574/):*jX54/):1Y-.Dh:/XhZh54e$257I8
/zih)$)GH>$%/-)GH>/jw6y5w(9 -p<]3p*\H([
gdPS/2'S5Iw'3W'S5I(2LIV$#+:[Bj)$Vj9! tL
s24EixF[$vJC-lF[$v+)q$ 97jw3eUyp<5)*[*0
[ORl)9eA9huU[QeA9hJh=]PY$x#UH/*))=<63$Z
aA<YJ:3>y)i-F=3>y)X5'2%j2p73X>$feS0.PW6
>!0>yW7KJS(b0'7KJSP$eto2X:$=+hPSFvT33jy
kG+*e#o%2/T5-Eo%2/:95*;)9127!ju(:%(==Uq
%nVEP74/):*jX54/):1Y-.Dh:/XhZIJj#2257I8
/zifH$)GH>$%/-)GH>/jw6y5w(9 -(X54)*\H([
gdP(%2'S5Iw'3W'S5I(2LIV$#+:[B+)=]l9! tL
s24#uxF[$vJC-lF[$v+)q$ 97jw3eU+Se5)*[*0
[OR,>9eA9huU[QeA9hJh=]PY$x#pH:1jsE<63$Z
aA<]4:3>y)i-F=3>y)X5'2%j2p73X3$vT00.PW6
>!0E5W7KJS(b0'7KJSP$eto2X:$=+IcU ET33jy
kG+;i#o%2/T5-Eo%2/:95*;)9127!;,Cif(==Uq
%nVE*74/):*jX54/):1Y-.Dh:/XhZx;3P(257I8
/zife$)GH>$%/-)GH>/jw6y5w(9 -9Jr,9! Tl
s2H(/xF[$vJC-lF[$v+)q$ 97jw3e/:9$v)*[*0
L
s5+39Ea9HUu[qEa9HjH=]0y$)GH>$%/-,\s>$lV;73X([ s70.PW6
>YPb#O%2/t5-eO%2/:95*K)9eA9huU[Qiz.hu'e(XhZj-h3$257I8
/)/U2's5iW'3w's5i(2li/$#o%2/T5-E=+c/T-ejw#eUTpX3)*[h0
[O5+>9eA9huU[QeA9hJh=]0Y$x#lH:%h)$<63$Z
aA$j4:3>y)i-F=3>y)X5'2Bj2p7-XM$/y50.PW6
>!9x5W7KJS(b0'7KJSP$et<2X:$=++cU (==uQ
%nJ:(74/):*jX54/):1Y-.Zh:/XhZIJj>'257I8
/z21V$)GH>$%/-)GH>/jw695w(9 -)e3u#*\H([
gd)/F2'S5Iw'3W'S5I(2LI/$#+:[B+;x5,9! tL
s2H3/xF[$vJC-lF[$v+)q$u97jwCe1H0$r)*[*0
[O5p39eA9huU[QeA9hJh=]0Y$x#pHS1h9=<63$Z
aA$3u:3>y)i-F=3>y)X5'2Bj2p73XMs +70.PW6
>!9=;W7KJS(b0'7KJSP$et<2X:$=+p(UujT33jy
kGy7H#o%2/T5-Eo%2/:95*k)9125!-3)ij(==Uq
%nJh074/):*jX54/):1Y-.Zh:/XhZx]3)S257I8
/z2 y$)GH>$%/-)GH>/jw695w(9 -5<3,C*\H([
gd)[*2'S5Iw'3W'S5I(2LI/$#+:[B:(jR,9! tL
s2H3sxF[$vJC-lF[$v+)q$u97jw3eUs7ir)*[*0
[O5p#9eA9huU[QeA9hJh=]0Y$x#pH(/Y9=<63$Z
aA$-+:3>y)i-F=3>y)X5'2Bj2p73XWu*+70.PW6
>!9b3W7KJS(b0'7KJSP$et<2X:$=+4P[%YT33jy
kGy5B#o%2/T5-Eo%2/:95*k)9125!-3C$257i8
/z2%)$)GH>$%/-)GH>/jw695w(9 -(HvLp*\H([
gd)'/2'S5Iw'3W'S5I(2LI/$#+:[Bj;bVp9! tL
s2HCixF[$vJC-lF[$v+)q$u97jwCe/HSe;)*[*0
[O5U)9eA9huU[QeA9hJh=]0Y$x#UH[%v7><63$Z
aA$-J:3>y)i-F=3>y)X5'2Bj2p7-XM(%s00.PW6
>!9byW7KJS(b0'7KJSP$et<2X:$b+I>UV+T33jy
kGy5e#o%2/T5-Eo%2/:95*k)9127!Y4p(U(==Uq
%nJ)P74/):*jX54/):1Y-.Zh:/XhZ>]h('257I8
/z2UH$)GH>$%/-)GH>/jw695w(9 -(=3uE*\H([
gd)U%2'S5Iw'3W'S5I(2LI/$#+:[Bv9j539! tL
s2HMuxF[$vJC-lF[$v+)q$u97jwCe1H9<v)*[*0
[O53>9eA9huU[QeA9hJh=]0Y$x#pH2ujP=<63$Z
aA$;4:3>y)i-F=3>y)X5'2Bj2p7-XWuj:;0.PW6
>!9j5W7KJS(b0'7KJSP$et<2X:$b+3c'VjT33jy
kGySi#o%2/T5-Eo%2/:95*k)9127!r+Es%(==Uq
%nJ)*74/):*jX54/):1Y-.Zh:/XhZ<JU(:257I8
/z2Ue$)GH>$%/-)GH>/jw695w(9 -*$;i#*\H([
8
/):12's5iW'3w's5i(2li/H#o%2/T5-E=+c/T->]w#eUe*<-)*[h0
[O5I39eA9huU[QeA9hJh=]0S$x#UH'Hvsb<632Z
a9H-w7kjs(B0'7kjsp$ET<:xF[$vJC-lL86vJ=(127!-i3i257i8
/z2/)$)GH>$%/-)GH>/jw69vw(9%-5>5+3*\H([
gd):/2'S5Iw'3W'S5I(2LI/h#+:[Bj7IVI9! tL
s2H>ixF[$vJC-lF[$v+)q$u)7jw3e1T7i;)*[*0
[O5I)9eA9huU[QeA9hJh=]0S$x#pH[Fh7=<63$Z
aA$vJ:3>y)i-F=3>y)X5'2B/2p73Xp[h+;0.PW6
>!9hyW7KJS(b0'7KJSP$et<:X:$=+pc2 jT33jy
kGy)e#o%2/T5-Eo%2/:95*k>9127!j+Wi*(==Uq
%2V:$)gh>$%/-)gh>/JW69VW7KJS(b0'F=DS(5]+:[B:7h])*[*0
[O5439eA9huU[QeA9hJh=]0S$x#pH[H:*><63$Z
aA$ru:3>y)i-F=3>y)X5'2B/2p73X(uvT00.PW6
>!9<;W7KJS(b0'7KJSP$et<:X:$=+3>' vT33jy
kGy0H#o%2/T5-Eo%2/:95*k>9127!jP3(*(==Uq
%nJ+074/):*jX54/):1Y-.ZI:/XhZ$Jhc:257I8
/z2vy$)GH>$%/-)GH>/jw69vw(9 -peji9! Tl
s2Hp$xF[$vJC-lF[$v+)q$u)7jw3e*J)Xv)*[*0
[O54e9eA9huU[QeA9hJh=]0S$x#pHS*+9j<63$Z
aA$r,:3>y)i-F=3>y)X5'2B/2p73XCsjJ)0.PW6
>!9$JW7KJS(b0'7KJSP$et<:X:$b++eSV)T33jy
kGy9=#o%2/T5-Eo%2/:95*k>9127!3J(sj(==Uq
%nJY574/):*jX54/):1Y-.ZI:/XhZ<y3P:257I8
/z2j)$)GH>$%/-)GH>/jw69vw(9%-5=;+M*\H([
gd)2/2'S5Iw'3W'S5I(2LI/h#+:'Bj)xJ49! tL
s2H)ixF[$vJC-lF[$v+)q$u)7jw3e/ySe-)*[*0
[O5h)9eA9huU[QeA9hJh=]0S$x#pH'%h5><63$Z
aA$5J:3>y)i-F=3>y)X5'2B/2p73XW2/H*0.PW6
>!9$yW7KJS(b0'7KJSP$et<:X:$=+h)( )T33jy
kGy9e#o%2/T5-Eo%2/:95*k>9125!;i#[v(==Uq
%nJtP74/):*jX54/):1Y-.ZI:/XhZx;U>S257I8
/z2*H$)GH>$%/-)GH>/jw69vw(9%-7ev+C*\H([
gd)$%2'S5Iw'3W'S5I(2LI/h#+:'B:5>;h9! tL
[
ghwUXf[$Vjc-Lf[$V+)Q$ )74/):*jX5% q:*W(I#pH/ h)=<63$Z
a9ivw7kjs(B0'7kjsp$ETO:xF[$vJC-lL86vJ=$*27!;+Esf(==Uq
%2*+$)gh>$%/-)gh>/JW6YVW7KJS(b0'F=DS(5ul:(B)0h-l9! vL
s2HW2xF[$vJC-lF[$v+)q$ )7jwEe%)9e<63$z
aA$UJ:3>y)i-F=3>y)X5'2%/2p73X3uhy90.PW6
>!9IyW7KJS(b0'7KJSP$eto:X:$=+4(U/ST33jy
kGy(e#o%2/T5-Eo%2/:95*;>9127!;+#$f(==Uq
%nJvP74/):*jX54/):1Y-.DI:/XhZjVjPS257I8
/z2hH$)GH>$%/-)GH>/jw6yvw(9 -5>UuM*\H([
gd)S%2'S5Iw'3W'S5I(2LIVh#+:[BS;xJp9! tL
s2HEuxF[$vJC-lF[$v+)q$ )7jw3e1e7i-)*[*0
[O5l>9eA9huU[QeA9hJh=]PS$x#pH:Fv7><63$Z