.SUBCKT VIO_BUF PIN CODIN COOEB VCCN VSSN VSS VCC VREF
+ RPCDP7 RPCDP6 RPCDP5 RPCDP4 RPCDP3 RPCDP2 RPCDP1 RPCDP0
+ RPCDN7 RPCDN6 RPCDN5 RPCDN4 RPCDN3 RPCDN2 RPCDN1 RPCDN0
+ RPCDNEXTRA RPDLY RNDLY RPCI RPULLUP RPCDSR1 RPCDSR0 RAMBH ROPDRAIN
.PROT freelib
y
\$4:=#y%k[F$+G/+910
L
+*+:y$av. +196i[y*+:/z
P6=#52kpiQ=>w;]> 6=#+Y
\$J$8*/O]+JU7'T%%$J$X8
y2ux36sdTGu!2:.G;2ux:l
+*i:y$av. i196i[y*i:/z
P6<#52kpiQ<>w;]> 6<#+Y
\$y$8*/O]+yU7'T%%$y$X8
y2$x36sdTG$!2:.G;2$x:l
[
9 (96I[Y\-( X36SD (910
<#3W;]> 8l37:Y$AV#3W(6
-z57't%%[,5z#52KPz57JQ
6=u2:.g;+1u%$8*/o=u2P[
9 >96I[Y\-> X36SD >910
<#RW;]> 8lR7:Y$AV#RW(6
-z97't%%[,9z#52KPz97JQ
6=*2:.g;+1*%$8*/o=*2P[
8
y<y12:.G;<y+:U7'T%%03p7jq
6b6h$8*/ob6,7z#52KPU:=#+y
6
-3/9s=!*X3/9s=!*Xp/9#+Y
\6L<%S=!*12:,92 R8(p79k<910
<8%Y xi7T=#5F\7'34<p:\0U$X8
y;%2/\o#5o*3Ma79k<910
<8ZK r%7T7'k<XIJh0#Y<bX:l
[
9fa=8dJ8cW[f[7w%'#:\>A$X8
y2R[7W%'#:]IZhmS5!9-a[7JQ
6=$M6YcK:=$m6yCk:\0U$X8
y+w.':4# !m73h79/%912l
+z*tXp3$9h[ %62<9zw(6
-//S%\:-0a3g#Y<bX:l
+\F<%8Z$#0kOw[2<sGw(6
-M6Ys;;94IV%D5:\0U$X8
yUmp($\t;99-u/7JQ
6f8!Dn#*!N;X$+ZK:/z
0
<0\5+bi2T#' <rXp/9#+Y
\[\:Nd569[\:nD569-u/7JQ
6=>U:0\W+K03T##Y<bX:l
+t/ k=L6i#V%X>;3. J19-u/7JQ
6M>'[1%t)9.AJS[=21J%$+ZK:/z
PWsS/'R$+$mG2%5IiQ<>w6B02P[
9v%x>;3.VW0K7Ag,*-> Xp/9#+Y
\.ajs[=2uxD[%G$f]+)U79k<910
<Mg2%5iI57T/ K=l6l-7:\0U$X8
y0k7aG,*P:m>'[1%TG[!2<9zw(6
-d[%g$F]12wSs/'r$,Pz#Y<bX:l
+t/ k=L8i#V%X>;3# J19-u/7JQ
6M>'[1% )9.AJS[=+1J%$+ZK:/z
PWsS/'R[+$mG2%5IZQ<>w6B02P[
9v%x>;3#VW0K7Ag,\-> Xp/9#+Y
\.ajs[=+uxD[%G$f=+)U79k<910
<Mg2%5iz57T/ K=l8l-7:\0U$X8
y0k7aG,\P:m>'[1% G[!2<9zw(6
-d[%g$F=12wSs/'r[,Pz#Y<bX:l
+Gk;%8Z$sz5Ow[2<9zw(6
-A/8g=.9>U:S%\:\0U$X8
q
%]= $.c :/XhZx<63'Z
0
N7')uM-(V7%YobX78.$2:-4\ 0'Q
6=P7 dc):=P7 dc):\>A$X8
q
59#'gO#[FW$5 ,Tt:W[7J4[=:K.zV4s#0=00
Z4gW6v[//YT! ;a:L
!C/:\tFf%[D=> kYX8
X!kxPr)l2'NlN5cQ+Y
e8a$+)o,X=!-ajob)10
Z4gW6ve<J12'4[=Kyx8
X!kxPr)l2'NlN5)f((6
Z
[$/t2:B.aM0Sw!=8'h1%w%m[ h%CV+Bz
-hs#ylF.'/sW2b)10
Z4gW6ve7w54#0-4\-)Hv Q[Iw8FW-910
Z4gW6ve7w54#0-4\-)Hv Q[Iw8[.:)X:L
!C/:\tFhmEo!m3m 54*0XlZ6m'$';x*$X8
X!kxPr)CV=38DxR:'7F.'-%\Pb9A2p[
+#%9-='4T'7W./\deOaM7WDMsKc;X*$x8
X!kxPr)CV=38DxR:'7F.'-#-.:)x:l
!C/:\tFhmEo!m3m 54*0Xl>W%zPb9A2p[
+#%9-='4T'7W./\deOaM7WDMsK3[]2y7JQ
HW>2<K4#0Qe7w-$[=3;dJ5Hv b%j47qW(6
Z
0
[O3W7W.W'4TfRjLf6r*'F=D)5$RW(9 -;>V4>*\h([
8
/z'xFhmEo!m3m 54Tr]lL86;JM(x:$<+,)$*st33JY
6
>)$)cv=38dXr:'7]4I-,\Sm$/:$)cv=38dXr:'7]4I-,\Sm$uE$h+3P2JST33jy
kGs$)CV=38DxR:'7]4i-,\sM$/:$X#3h(%s9><63$z
0
[ORW7W.W'4TfRjLf6r*'F=D)5buW(9*-7h-+#*\h([
8
/)9E7W54#0-4\-)*!2qIZ.J-uE9E7W54#0-4\-)*!2qIZ.J-uW9/-S<5H>*\H([
gdw9e7w54#0-4\-)*!2Qiz.j-Ue9120!533$H(==uQ
y
6
Z
0
[O3p:38d-)cv[0_W'$VheQeIV,P'F=Dv$x#UHSu:9E<63SZ
0
[O3U:38d-)cv[0_W'.$t=r[Gsb-h:/X)Z>]h3(257I8
q
%n )$)cv=38dXr:'7]4I-,\Sm'/)$x#UH$/hP$<63$Z
0
[O3I:38d-)cv[0_W'.$t=r[GsbVp:/X)Z<]lc(257I8
q
%n +$)cv=38dXr:'7]4I-,\Sm'/t$x#IHSJ)5E<63$Z
0
[=5W7W.W'4TfRjLf6r*'F=D)5hyW7W.W'4TfRjLf6r*'F=D)5huW>E1:5E-)*[*0
[O3j:38d-)cv[0_W'.$t=r[GsbVl:/XjZ$-+)2257I8
q
%n v$)cv=38dXr:'72/Y*54 oroW3#/l:/XSZ>5U($257>8
q
y
6
Z
0
[ORp:38d-)cv[0_W'.$t=r[Gsbu3:/XjZ=3Im(257I8
q
%nVj$)cv=38dXr:'7]4I-,\Sm'Jt$x#3HS t;I<63$Z
0
[<;W7W.W'4TfRjLf6r*'F=D)5$yW7W.W'4TfRjLf6r*'F=D)5$uW>E :(hV)*[*0
[ORI:38d-)cv[0_W'.$t=r[Gsb5l:/X+Zh33m'257I8
q
%nV+$)cv=38dXr:'7]4I-,\Sm'V)$x#UH[1)s$<63$Z
0
[ORh:38d-)cv[0_W'.$t=r[GsI;p:/X)ZER+c'257I8
q
%I*2'4T'7W./\deO20$W3#/3wU%2'4T'7W./\deO20$W3#/3wU 2)!3+w:/(==uQ
%nVv$)cv=38dXr:'7]4I-,\Sm$uj$x#4H'/S0=<63$Z
0
[OR,:38d-)cv[0_W'.$t=r[GsI-,:/XvZb]pc$257I8
q
%nJ:$)cv=38dXr:'7]4I-,\Sm'u)$x#IH//Ys=<63$Z
0
[O5p:38d-)cv[0_W'.$t=r[Gsb;U:/XjZEJh3I257I8
q
%nJj$)cv=38dXr:'7]4I-,\Sm'u+$x#UHSut9j<63$Z
0
[O53:38d-)cv[0_W'.$t=r[GsI;I:/XtZx]jP*\h([
8
q
y
6
Z
aA$Yw7w.w'4tFrJlF9H5L=3Gs55\+:/xsz=ji3(257>8
q
%nJE$)cv=38dXr:'72/Y*5% q[F2P7]xP'*S50.pe6
Z
aAijw7w.w'4tFrJlF9H5L=R[g7i#+:[b:7X;,9! Tl
[
gdw[XfHMeO!M3M 54h>2HW3#/4#9127!53c( (==uQ
y
kGT574#0qE7W-$[=3$3t.d =3p3h+<5=3$ p5% Q:x:$=+J)( Jt33JY
6
>!(j#O!MLfHM0!TQeI:0*!2Qe :49);QeIVje=+C t$x#UH:%Y*$<63$Z
0
[OuI:38d-)cv[0_W'.')20$W'Y'#6*6W'.Dp=r[G7h#+:[Bv9xV)*[*0
L
s2Jp9E7W54#0-4\-)*59]4i-)d5!\23-)*;(qIZ.=vw(9 -p<5HE*\H([
8
/W2xFhmEo!m3m 54Tr]lL86;uW:xFhmEo!m3m 54Tr]lL86;uWux)ze3uC$257i8
/z$*2'4t'7w./\DEo20$w3#/3C$/2p7-XC[/:S0.PW6
Z
aAiYw7w.w'4tFrJlF6R*'f=d)(H;w(9U-0i]L)*\H([
8
/W(xFhmEo!m3m 54Tr]lL86;J>:xFhmEo!m3m 54Tr]lL86;J>uxszHv+E*\H([
gde/XfHMeO!M3M 54tR]Ll86;j>:X:$j+hc[u)T33jy
6
>v774#0Qe7w-$[=3$M65% qU%Y974#0Qe7w-$[=3$M65% qU%Y07;x#[%h(0.pw6
>!*b#O!MLfHM0!TQeI\.e=+Cuj9$#+:'Bt*jJl9! tL
[
glm9e7w54#0-4\-)*!2QeI7bR'oO7h$)cv=38dXr:'7]4I-,\Sm'J+$E+j#$VST33ly
kGV)74#0qE7W-$[=3$m654T3'vwv\SP:/x)z$-uC(257$8
q
%nH+$)cv=38dXr:'7]4I-)*pcILU>%3W(9 -*IVh)*\h0[
gde2XfHMeO!M3M 54tR]Lf6=-4=bm'77JW#EJE(IR)*[*0
[Oyj:38d-)cv[0_W'.$t=3$h5<eKux 2P7]xP:1jT33jy
kGV*74#0qE7W-$[=3$m654T3'vw/\SP:/xezi-PM:257i8
/zsf2'4t'7w./\DEo20$w'.3upq0oj=#+:sbV9B3u9! Tl
s2,(9E7W54#0-4\-)*!2qEi7Br'<o7H$X#Ph/%H;><632z
aAe3w7w.w'4tFrJlF6R*'7] J05z9 [x:$e++)(U(==Uq
%nFj$)cv=38dXr:'7]4I-)*pcILU>%3W(9F-5>uI#*\h([
gd#UXfHMeO!M3M 54tR]Lf6=-4=bm'77JW3E1E5I;)*[J0
[O]I:38d-)cv[0_W'.$t=3$h5<eKux 2P7yx#$/j50.pw6
>!;<#O!MLfHM0!TQeI\.eO2[%+-9k239127!J3(U257$8
/z(j2'4t'7w./\DEo20$w'.3upq0oj=#+:(b+;<UP9! Tl
s2,W9E7W54#0-4\-)*!2qEi7Br'<o7H$X#,h:1)9e<63$z
aAeYw7w.w'4tFrJlF6R*'7] J05z9 [x:$e+HW$fJt33JY
kfe$)CV=38DxR:'7]4i-)*PCilu>%3w7w.w'4tFrJlF6R*'f=d)(J]wCe/y;>U)*[*0
[=J+:38d-)cv[0_W'.$t=3$h5<eKux 2'4T'7W./\deO20$W3#/3w:12)!Jj>/H(==yQ
%n :774#0Qe7w-$[=3$M654t3'VW/\sp:/XYZ$-h(U257I8
/z[1J$)CV=38DxR:'7]4i-)*PCilu>%3w(9f-5$Y,#*\H([
gd3/u2'4T'7W./\deO20$W'.3UPQ0OJ=#+:(BE;IR39! tL
s2P(:xFhmEo!m3m 54Tr]lF6=-4=BM'77jw#e1V($<63$z
aA=j4:38D-)CV[0_w'.$T=3$H5<EkUX 2p7]XW:hT)0.PW6
>!7x5W7W.W'4TfRjLf6r*'7] j05Z9 [X:$E+Um:u+T33jy
kGHpi#o!mlFhm0!tqEi\.Eo2[%+-9K23912*!YLM[j(==Uq
%n :*74#0Qe7w-$[=3$M654t3'VW/\sp:/XhZx-jm*\h9[
8
/z[1e$)CV=38DxR:'7]4i-,\sM'%)$X#3h2j+*e<63$z
0
[=3+:38d-)cv[0_W'.$t=r[Gsb-I:38d-)cv[0_W'.$t=r[Gsb-3::Bh9$R39! tL
s2P3[xFhmEo!m3m 54Tr]lL86;uC:x:$i+PCu1yt33JY
6
>!7=-W7W.W'4TfRjLf6r*'F=D)(jyW(9/-sjVh9! tL
[
gp3UXfHMeO!M3M 54tR]Ll86;jm$XfHMeO!M3M 54tR]Lf6=-4=bm'77yx(2JY00.pe6
>h7h#O!MLfHM0!TQeI\.e=+CutsI#O!MLfHM0!TQeI\.e=+Cuts>#IH[1t)h<63$Z
aA=34:38D-)CV[0_w'.$T=R[gSi;J:/x+z$Y+3$257i8
q
%n h974#0Qe7w-$[=3$M65% qU%Y)7JWmE1j;b5)*[*0
L
s3PW9E7W54#0-4\-)*!2qIZ.J-HM9E7W54#0-4\-)*!2qEi7Br'Oo7H$B+PM21et33JY
k H*74#0qE7W-$[=3$m65% Qu%yS74#0qE7W-$[=3$m65% Qu%y)7;X#[%J(0.PW6
>!7=]W7W.W'4TfRjLf6r*'F=D)5$;W(9%-9I3,P*\h([
8
/3'12'4t'7w./\DEo20$w3#/3C:/2'4t'7w./\DEo20$w3#/3C:U2S!]PC[*(==Uq
%n j774#0Qe7w-$[=3$M65% qU%S)7JW3EFEPI3)*[*0
L
s2PC'xFhmEo!m3m 54Tr]lL86;uC(x:$J+H>:fVt33JY
6
>h5j#O!MLfHM0!TQeI\.e=+Cujsx#O!MLfHM0!TQeI\.e=+Cuj5E#IH'FEsb<63$Z
aA=-i:38D-)CV[0_w'.$T=R[gSB;+:/xJz<]3M*\H([
8
/z[%+$)CV=38DxR:'72/y*54TOROw'.[k3q[:$X#Ph:hs(0.P)6
>!7b5W7W.W'4TfRjLf9h5l=3$ 32eO250h-#JW(9%-(>JpP*\h9[
gd3'*2'4T'7W./\deO):Jv-)*;F<Lf61Zp==12P75xe:Hj(0.pw6
Z
aA=-L:38D-)CV[0_w'$vHEqEiv,p'f=d+$X#3h/fT(e<63sz
0
[O3U#9e7w54#0-4\-)5I)SLf6Y%:=3$;/be (912s!u,(U (==5Q
%n )P74#0Qe7w-$[=3JS9>eO2%i#-)*$<'LzP7JWcE*Y9b;)*[*0
[O3339e7w54#0-4\-)5I)SLf6Y%:=3$;/be (912s!yh)$257I8
/z[UJ$)CV=38DxR:'72/y*54TOROw'.[kCq[:$X#Ph[%H;J<632z
0
L
[
gd3UV2'4T'7W./\deO):Jv-)*;F<Lf61Z+==12P7-xw[ v00.pw6
>!7j5W7W.W'4TfRjLf9h5l=3$ 32eO250:-#JW(9%-*<5I9! YL
s2PM$xFhmEo!m3m 54H>2hw'.d=8qEiG9j'+/x:$J+332 Jt33HY
kGHS>#o!mlFhm0!tqEy)$Y'7]pLE54T'B1w8X#+:[bJpej,9! Tl
[
gd3UF2'4T'7x7lH#J'7/Lx+E0W(9V-7x;l)*\h([
gd3:12'4T'7x7lH#J'7/Lx+E0W(9V-0x3Ue*\h([
gd3: 2'4T'7x7lH#J'7/Lx+E0W(9V-PxRI>*\h([
8
/z[/J$)CV=37'34\+=31w+Nd/:/x)z>34>'257i8
/z[/)$)CV=37'34\+=31w+Nd/:/xTz=333(257i8
q
%[/S$)cv=37'34\+=31W+nyf:38d-)s2FW[:-)J'J_F/$b++>[%tT33jy
k s074#0qE'j,C (qE:-NbL[9E7W542 R8Zp54+=_Kex7;X>2%:*0.PW6
>h)$#O!MLfJ%%#+/LfP5B>e-XfHMeO xi78xeO(Qkx;-#pH[/:(I<632Z
aA=vJ:38D-)S2fw[:-)j'j_h/$X#Ph(U+(H<632z
aA=vL:38D-)S2fw[:-)j'j_h/$X#Phu*J)$<632z
0
[=V,:38d-)s2FW[:-)J'a/XfHMeO xi78xeO(QkxVS#IH'1EP=<63$Z
aA=r+:38D-)S2fw[:-)j'A/x:$i+3Cs*Vt33JY
kGH0=#o!mlFj%%#+/lFp5h+:/xTz>3+3(257i8
/3i%2'4t'7X7Lh#j'7/l>p74#0qE'j,C (qE:-Nb;%9%-;irL#*\H([
gd3Iu2'4T'7x7lH#J'7/L>P7JW#EH+)$y)*[*0
[O34>9e7w542 r8zP54+=f12P7;xm2/v)0.pw6
>h0<#O!MLfJ%%#+/LfP5H+:38d-)s2FW[:-)J'J_PA$j+h>:*(==uQ
%n +974#0Qe'J,c (Qe:-/JW(9*-*=-p#*\h([
gd3I*2'4T'7x7lH#J'7/L>P7JWwEHS*x3)*[*0
L
s34E9E7W542 R8Zp54+=_Ka[74#0qE'j,C (qE:-/jw>eh+;=5)*[*0
[O34#9e7w542 r8zP54+=_kA[7JW>EHt)bV)*[*0
[=5+:38d-)s2FW[:-)J'J_>A$)cv=37'34\+=31WDx#UH2Ht7I<63$Z
a7$3w7w.w'%S=!=1w'XE>jk>2'4t'7X7Lh#j'7/l>p73X#2v+50.PW6
>!7$-W7W.W'%s=!=1W'xe>JK>2P7;xPSHS;0.pw6
>h9j#O!MLfJ%%#+/LfP5B>%KXfHMeO xi78xeO(Q;:$I+4>SFjT33jy
k y)74#0qE'j,C (qE:-Nb/%9E7W542 R8Zp54+=F127!3L3u/(==5q
%[J+$)cv=37'34\+=31W+ng/:38d-)s2FW[:-)J'J_PA$>+h#U/)T33jy
k y974#0qE'j,C (qE:-Nb/%9E7W542 R8Zp54+=_K [7;X3:*:50.PW6
>!7$uW7W.W'%s=!=1W'xe>JK>2P7;xw/Fj;0.pw6
Z
aA=5L:38D-)S2fw[:-)j'j_3a$X#Jh[%T0<<63$z
aA=5,:38D-)S2fw[:-)j'j_3a$X#LhsvVp$<63$z
aA=U+:38D-)S2fw[:-)j'j_3a$X#Ph' )*0.PW6
Z
a7i3w7w.w'%S=!=1w'XE>j/n2'4t'7X7Lh#j'7/lX+-GwMe%J(<Y)*[*0
[O3jc9e7w542 r8zP54+=_k:_7JWwE1Y)$;)*[*0
[=u3:38d-)s2FW[:-)J'J_1n$)cv=37'34\+=31W+n0/:[B:(<Vp9! tL
s2PW:xFhmEo XI78XEo(qKXpa#+:sbJ7B3,9! Tl
s2PWixFhmEo XI78XEo(qKXpa#+:[bT;=-u9! Tl
s3J)9E7W542 R8Zp54+=_K:_74#0qE'j,C (qE:-NbF%9 -)<jJ3*\H9[
gpw$XfHMeO xi78xeO(QkxPA#O!MLfJ%%#+/LfP5B>[KXhZbV4w2257I8
/z[*V$)CV=37'34\+=31w+Nj%:/xTzJ]+#*\H9[
gd3$F2'4T'7x7lH#J'7/Lx+x_W(9V-7x5,w*\h([
gd3S12'4T'7x7lH#J'7/Lx+x_W(9u-0=-I3*\h9[
8
/z[hH$)CV=38DxR:'7]6(6R*'7%67<0''7]p)-,\sM212p73X32%J;0.P)6
Z
aA=Yu:38D-)CV[0_w'.d =R[g5iY4:/xJzH5HC*\H([
8
/z[h)$)CV=38DxR:'7]6(6R*'7%67<0''7]p)-,\sC/x:$B+,)u*Ht33JY
6
>!7>VW7W.W'4TfRjLf68<tR]LfV8cY9YLf6YR'7SLzP7JW3E*j0hy)*[*0
L
s2PEixFhmEo!m3m 54Tr]lL86;up2x:$J+L>$%+t33JY
6
>h*$#O!MLfHM0!TQeI\.e=+Cuj0h#O!MLfHM0!TQeI\.e=+Cuj0j#3H$*E*I<63$Z
aA=YJ:38D-)CV[0_w'.$T=R[gSBri:/xJz$3Lpi257i8
q
%n v*74#0Qe7w-$[=3$M65% qU%+;7JWcE1S9b])*[*0
L
s3L#9E7W54#0-4\-)*!2qIZ.J-H(9E7W54#0-4\-)*!2qIZ.J-4#9U-;=-uW*\H([
gd3(12'4T'7W./\deO20$W3#/3c212P73x)[%+)0.pw6
Z
a7e3w7w.w'4tFrJlF6R*'f=d)5<rw7w.w'4tFrJlF6R*'f=d)5<5w>e :(Hv)*[*0
[O3,c9e7w54#0-4\-)*!2Qiz.j-4P9125!J4#:J(==uQ
y
k eS74#0qE7W-$[=3$m65% Qu%)974#0qE7W-$[=3$m65% Qu%)07;X#[%H(0.PW6
>!7EVW7W.W'4TfRjLf6r*'F=D)5j5W(9 -9b]I#*\h([
8
/3(v2'4t'7w./\DEo20$w3#/3C:%2'4t'7w./\DEo20$w3#/3C: 2S!]Ppu (==Uq
%n E974#0Qe7w-$[=3$M65% qU%S57JWcEuE;=])*[*0
L
s2P#$xFhmEo!m3m 54Tr]lL86;u>2x:$J+P3'hyt33JY
6
>!7EyW7W.W'4TfRjLf6r*'F=D)5<JW(9%-sxRIw*\h([
8
/z[fe$)CV=38DxR:'7]4i-,\sM'/:$X#3h/v)0<<63$z
0
[bJ+:38d-)cv[0_W'.$t=r[Gsb-4:38d-)cv[0_W'.$t=r[Gsb-h::B)0$uI9! tL
s2u([xFhmEo!m3m 54Tr]lL86;uCix:$J+i)i/)t33JY
6
>jPb#O!MLfHM0!TQeI\.e=+Cuj)<#O!MLfHM0!TQeI\.e=+Cuj)$#3H( j5I<63$Z
aABj3:38D-)CV[0_w'.$T=R[gSBv4:/xJzXr3>s257i8
q
%'1S$)cv=38dXr:'7]4I-,\Sm'/E$)cv=38dXr:'7]4I-,\Sm'V:$h++PI%ET33jy
kGJp<#o!mlFhm0!tqEi\.E=+cUJ)e#+:ib:7>3i9! Tl
[
gU(2XfHMeO!M3M 54tR]Ll86;Um(XfHMeO!M3M 54tR]Ll86;U>/X)ZIR3):257I8
/z'1T$)CV=38DxR:'7]4i-,\sM'Ue$X#uh(%eSi<63$z
0
[O-+e9e7w54#0-4\-)*!2Qiz.juU)9125!]I#I%(==uQ
y
k%:;74#0qE7W-$[=3$m65% Qu*J074#0qE7W-$[=3$m65% Qu*J97vX3/*s)0.PW6
>!5=JW7W.W'4TfRjLf6r*'F=D)(bRW(9u-;=J,3*\h([
8
/z' H$)CV=38DxR:'7]4i-,\sM$%V$X#3h[jJ9i<63$z
0
[b3U:38d-)cv[0_W'.$t=r[GsI-j:38d-)cv[0_W'.$t=r[GsI-l::B)0$5I9! tL
s2u3uxFhmEo!m3m 54Tr]lL86;JC$x:$J+LWujHt33JY
6
Z
0
L
[
8
q
y
kGJ5$#o!mlFhm0!tqEy)$Y'7]pLE5b>.9129!rP(2h(==5q
%n%j(74#0Qe7w-$[=3JS9>eO2%i#-nB\:/XtZh5,P[257I8
/C'h2'4t'7w./\DEo):jV-)*;f<lX+g#o!mlFhm0!tqEy)$Y'7]pLE5% QixHzX;LM(257>8
/z'%e$)CV=38DxR:'72/y*54TOROw+NWw(9%-SB]J3*\H9[
gdcU12'4T'7W./\deO):Jv-)*;F<Lx+G#+:2Bh)Iu49! tL
s2uM[xFhmEo!m3m 54H>2hw'.d=8qKXM7jwpeje*$Y)*[j0
[O-3c9e7w54#0-4\-)5I)SLf6Y%:=_k]$x#,H2VY9b<63$Z
0
[O-3m9e7w54#0-4\-)5I)SLz/SkW(9 -;hJ,>*\h9[
gUm:XfHMeO!M3M 54h>2HW89g9:38d-)cv[0_W'$VheQiz.<]W>EFvsj;)*[H0
[O-3P9e7w54#0-4\-)5I)SLz/SkW(9%-)>-j)*\h9[
gdcUJ2'4T'7W./\deO):Jv-#Z/u9127!V,m' (==5Q
%n%)(74#0Qe7w-$[=3JS9>e <Km2P7Vx)S%Ss0.pw6
Z
aAB;L:38D-)CV[0_w'$vHEqEZv,p'7]=u55\+:/xHzBU,3(257$8
/z'Ue$)CV=38DxR:'72/y*54 OROw'.[kCq[:$X#HhshsSJ<63$z
aABv+:38D-)CV[0_w'$vHEqEZv,p'7]=u55\+:/xJzeUPEi257$8
q
%n%S774#0Qe7w-$[=3JS9>eO+%i#-,\SP912s!Jj(S%(==yQ
y
kGJ)B#o!mlFhm0!tqEy)$Y'7=pLE5b>.9120!U+C[U(==5q
%n%Ss74#0Qe7w-$[=3JS9>eO+%i#-nB\:/XhZj3pc'257I8
/z'/s$)CV=38DxR:'72/y*54 OROw+NWw(9v-0$]u>*\H([
gdc:V2'4T'7W./\deO):Jv-)\;F<Lx+G#+:SBj*=yI9! tL
s2u>2xFhmEo!m3m 54H>2hw'#d=8qKXM7jw)e/Vp$3)*[*0
[bVj:38d-)cv[0_W'$VheQezV,P'J_,2'4T'7W./\deO):Jv-)\;F<Ll86RWeE*+7E5)*[F0
[O-Ie9e7w54#0-4\-)5I)SLf8Y%:=_k]$x#pH$/h*$<632Z
aABv,:38D-)CV[0_w'$vHEqEZv,p'j_,2p75Xp$ +;0.P)6
Z
aABr+:38D-)CV[0_w'$vHEqEZv,p'+[x:$H+i)s1Ht33JY
kGJ0=#o!mlFhm0!tqEy)$Y'7=pLE5\P:/xez<vP>i257i8
/Ci%2'4t'7w./\DEo):jV-)\;f<lZ774#0qE7W-$[=3js9>Eo+%I#-,\sp9 -9X34M*\H*[
gdcIu2'4T'7W./\deO):Jv-)\;F<Lz77JWPEHtPI-)*[J0
[O-4>9e7w54#0-4\-)5I)SLf8Y%:== 2P7RxmI j00.pw6
>!5<RW7W.W'4TfRjLf9h5l=3[ 32e 3912(!;hcUH(==uQ
%n%+974#0Qe7w-$[=3JS9>eO+%i#-#3W(9F-s$5hc*\h([
8
/Ci*2'4t'7w./\DEo):jV-)\;f<lF61zP==12'4t'7w./\DEo):jV-)\;f<lZ77vX>2je(0.PW6
>!5<yW7W.W'4TfRjLf9h5l=3[ 32eO250h-#JW(9u-PIJh>*\h9[
gUP(XfHMeO!M3M 54h>2HW'#D=8QeIg93'+/XfHMeO!M3M 54h>2HW'#D=8Q[h$=+Iw/u+T33hy
k%yp74#0qE7W-$[=3js9>Eo+%I#-)*$<[lZp74#0qE7W-$[=3js9>Eo+%I#-#3w3e/y(XY)*[*0
[O-h39e7w54#0-4\-)5I)SLf8Y%:=3$;/=e (9125!5,(U*(==uQ
%n%Y574#0Qe7w-$[=3JS9>eO+%i#-)*$<[LzP7JW>EVtsEV)*[*0
[b53:38d-)cv[0_W'$VheQezV,P'7]=U75\+:38d-)cv[0_W'$VheQezV,P'+[XtZbJIm2257I8
/z'js$)CV=38DxR:'72/y*54 OROw'.[k3q[:$X#Ph'/H5<<632z
0
[b54:38d-)cv[0_W'$VheQezV,P'J_k2'4T'7W./\deO):Jv-)\;F<Lz773x3$Vvs0.pw6
>j9$#O!MLfHM0!TQeY)$y'7=Ple5B>J9e7w54#0-4\-)5I)SLf8Y%:=3$;/=e (9 -Pj]lm*\h([
gU)$XfHMeO!M3M 54h>2HW'#D=8Qkx+74#0Qe7w-$[=3JS9>eO+%i#-#3WmEF:7>5)*[*0
[b5l:38d-)cv[0_W'$VheQezV,P'J_k2'4T'7W./\deO):Jv-)\;F<Lf61Zp==127!JIP/*(==5Q
%'JE$)cv=38dXr:'72/Y*54 oroW+nBW7W.W'4TfRjLf9h5l=3[ 32e 39 -sjJ+>*\h9[
gUw/XfHMeO!M3M 54h>2HW'#D=8Qkx+74#0Qe7w-$[=3JS9>eO+%i#-nB\:UB+s$5,9! tL
s2uW[xFhmEo!m3m 54H>2hw'#d=8qKX+7jwMeUH(<r)*[j0
[buU:38d-)cv[0_W'$VheQezV,P'J_k2'4T'7W./\deO):Jv-)\;F<Lz77yxm:uE70.pw6
>j(j#O!MLfHM0!TQeY)$y'7=Ple5B>J9e7w54#0-4\-)5I)SLf8Y%:== 2)!]j#[V(==uQ
%n%t)74#0Qe7w-$[=3JS9>eO+%i#-nB>:/XvZ>;+m$257I8
/C$v2'4t'7w./\DEo):jV-)\;f<lX+N#o!mlFhm0!tqEy)$Y'7=pLE54T'B w8X#Lh[hy00.PW6
>j($#O!MLfHM0!TQeY)$y'7=Ple5B>J9e7w54#0-4\-)5I)SLf8Y%:== 20!;3#[J(==uQ
%'*t$)cv=38dXr:'72/Y*54 oroW+nBW7W.W'4TfRjLf9h5l=3[ 32eO250h-#JW3EVt;x3)*[*0
[bul:38d-)cv[0_W'$VheQezV,P'J_k2'4T'7W./\deO):Jv-)\;F<Lz773x3Uuhs0.p)6
>!5I]W7W.W'4TfRjLf9h5l=3[ 32e>J_X:$j+33(V(==uQ
%'H:$)cv=38dXr:'72/Y*54 oroW+nBW7W.W'4TfRjLf9h5l=3[ 32e>J4XtZ<y3($257I8
/z'hH$)CV=38DxR:'72/y*54 OROw+Nbw(9f-Si5u3*\H([
gUe'XfHMeO!M3M 54h>2HW'#D=8Qkx+74#0Qe7w-$[=3JS9>eO+%i#-)*$<[LzP73x(/ Ys0.pw6
>j*j#O!MLfHM0!TQeY)$y'7=Ple5B>J9e7w54#0-4\-)5I)SLf8Y%:=_k]$b++)2H)T33jy
k%V)74#0qE7W-$[=3js9>Eo+%I#-Nb>:38D-)CV[0_w'$vHEqEZv,p'7]=u75\+:'b+9X;L9! yl
s-Lp9E7W54#0-4\-)5i)slF8y%:=_KX$)CV=38DxR:'72/y*54 OROw8=#Ph'1s7><632z
a5>5w7w.w'4tFrJlF9H5L=3[ 32E>j_xFhmEo!m3m 54H>2hw'#d=8qKXM73X>u1H*0.P)6
>!5>uW7W.W'4TfRjLf9h5l=3[ 32e>J_X:$j+Uc/%tT33hy
k%V*74#0qE7W-$[=3js9>Eo+%I#-Nb>:38D-)CV[0_w'$vHEqEZv,p'7]=u75\+::bV;<]u9! Tl
s-L#9E7W54#0-4\-)5i)slF8y%:=_KX$)CV=38DxR:'72/y*54 OROw'.[k3q[:$J+iW2 +t33JY
k%ep74#0qE7W-$[=3js9>Eo+%I#-Nb>:38D-)CV[0_w'$vHEqEZv,p'7]=u75\+:[bH($rH9! yl
s-,39E7W54#0-4\-)5i)slF8y%:=_KX$)CV=38DxR:'72/y*54 OROw8=#Ph/*T0=<63$z
aAB]u:38D-)CV[0_w'$vHEqEZv,p'j_K2p7-X3:%T70.PW6
>j;j#O!MLfHM0!TQeY)$y'7=Ple5B>J9e7w54#0-4\-)5I)SLf8Y%:=_k]$$+,(2*(==uQ
%'FS$)cv=38dXr:'72/Y*54 oroW+nBW7W.W'4TfRjLf9h5l=3[ 32e>J4XhZ=J4>2257I8
/C(v2'4t'7w./\DEo):jV-)\;f<lX+N#o!mlFhm0!tqEy)$Y'7=pLE5\P:[bVpijP9! Tl
s2u#2xFhmEo!m3m 54H>2hw'#d=8qKX+7jw3ehT(=Y)*[*0
L
s-,W9E7W542 R8Zp54+=_K;[74#0qE'j,C (qE:-Nb+49 -pB3i9! yl
s-,E9E7W542 R8Zp54+=_K;[74#0qE'j,C (qE:-NbF%9f-pB33p*\H([
gU#(XfHMeO xi78xeO(QkxgS#O!MLfJ%%#+/LfP5B>(>X)Zb5,)'257I8
/M/12'4t'7X7Lh#j'7/lX+1Gw7w.w'%S=!=1w'XE>j/n27!;iWsj(==5q
%U1h$)cv=37'34\+=31W+n[/:38d-)s2FW[:-)J'J_1n$b+3#(V)T33jy
kU:574#0qE'j,C (qE:-Nb$%9E7W542 R8Zp54+=_K/[7-XE/ H00.PW6
>)Pj#O!MLfJ%%#+/LfP5B>'KXfHMeO xi78xeO(QkxPA#4H$/h;><63$Z
aAJji:38D-)S2fw[:-)j'j_=a$X#Hhi%y7H<63$z
aSXrw7w.w'%S=!=1w'XE>j5>2'4t'7X7Lh#j'7/lX+-GwMe1+)X3)*[*0
[jJh:38d-)s2FW[:-)J'J_=A$)cv=37'34\+=31W+nJ%:IBEs$uI9! tL
s23($xFhmEo XI78XEo(qKXGs#+:(bTp>-,9! Tl
s;+E9E7W542 R8Zp54+=_K;[74#0qE'j,C (qE:-Nb+49U-0iYiE*\H([
g3((XfHMeO xi78xeO(QkxgS#O!MLfJ%%#+/LfP5B>[KXhZj]jmS257$8
q
%U :$)cv=37'34\+=31W+n4O:38d-)s2FW[:-)J'J_H/$=+Ue'uST33jy
kUH774#0qE'j,C (qE:-Nbo79E7W542 R8Zp54+=_Kex7]XMijH;0.PW6
>!s=-W7W.W'%s=!=1W'xe>J3e2P7;xe$FjT33hy
kG)7J#o!mlFj%%#+/lFp5b>73x:$i+,pi%+t33HY
kUH)74#0qE'j,C (qE:-Nbo79E7W542 R8Zp54+=_KVx73XC2/+70.PW6
>)7<#O!MLfJ%%#+/LfP5B>73XfHMeO xi78xeO(Qkx;-#UHU/+)><63$Z
aS=5w7w.w'%S=!=1w'XE>j3E2'4t'7X7Lh#j'7/lX+e0w>efy;>])*[*0
[O;pw9e7w542 r8zP54+=_kf'7JW>E1E0$-)*[J0
L
s233sxFhmEo!m3m 54H>2hw'#d=8q[:$X#Ph[/H9><632z
aAJ3,:38D-)CV[0_w'$vHEqEZv,p'+/x:$=+4C2h(==5q
%nujP74#0Qe7w-$[=3JS9>eO+%i#-#JW(9%-(>V3e*\h9[
gdm' 2'4T'7W./\deO):Jv-)\;F<LzP7JWmE1E*x5)*[*0
[O;Uc9e7w54#0-4\-)5I)SLf8Y%:==12P7;xwIFh70.pw6
>!sb;W7W.W'4TfRjLf9h5l=3[ 32e (9127!-4)IF(==5Q
%nuj)74#0Qe7w-$[=3JS9>eO+%i#-#JW(9 -7EVU3*\h9[
gdm'V2'4T'7W./\deO):Jv-)\;F<LzP7JWcE/S)hR)*[*0
[O;U)9e7w54#0-4\-)5I)SLf8Y%:==12P7-x>SJE)0.pw6
Z
aSBUw7w.w'4tFrJlF9H5L=3[ 32E C9E7W54#0-4\-)5i)slF8y%:==12S!j4('257i8
/M'h2'4t'7w./\DEo):jV-)\;f<lZ574#0qE7W-$[=3js9>Eo+%I#-,\sE9v-;XjuM*\H*[
g3c(XfHMeO!M3M 54h>2HW'#D=8Q[j$)cv=38dXr:'72/Y*54 oroW8x#IHS*Y(I<63$Z
aAJ;+:38D-)CV[0_w'$vHEqEZv,p'+'x:$=+JM/j)t33HY
kU)774#0qE7W-$[=3js9>Eo+%I#-#-w7w.w'4tFrJlF9H5L=3[ 32E (9 -0eYJ#*\H([
gdmU%2'4T'7W./\deO):Jv-)\;F<Lz57JW3EH+0>3)*[J0
[j;3:38d-)cv[0_W'$VheQezV,P'+'XfHMeO!M3M 54h>2HW'#D=8Q[:$=+I3I*(==uQ
%UuS$)cv=38dXr:'72/Y*54 oroW8b#O!MLfHM0!TQeY)$y'7=Ple5\+:[Bh5b349! tL
s;3p9E7W54#0-4\-)5i)slF8y%:==%2'4t'7w./\DEo):jV-)\;f<lZp75X)sUy50.PW6
>)s$#O!MLfHM0!TQeY)$y'7=Ple5\U:38d-)cv[0_W'$VheQezV,P'+/XhZ$;+w*\h([
gdmU*2'4T'7W./\deO):Jv-)\;F<Lz57JWmE/+)E;)*[J0
[j;l:38d-)cv[0_W'$VheQezV,P'+'XfHMeO!M3M 54h>2HW'#D=8Q[:$j++w/%ST33jy
kG)Se#o!mlFhm0!tqEy)$Y'7=pLE5\u:/xHzHYPM[257$8
q
%nuSP74#0Qe7w-$[=3JS9>eO+%i#-nBM:/X)ZEy4c*\h9[
g3>[XfHMeO!M3M 54h>2HW'#D=8Qkx,74#0Qe7w-$[=3JS9>eO+%i#-#JWcE/Y;E-)*[*0
[O;Ic9e7w54#0-4\-)5I)SLf8Y%:=_k4$x#hH' )*<<632Z
aSH;w7w.w'4tFrJlF9H5L=3[ 32E>jDxFhmEo!m3m 54H>2hw'#d=8q[:$=+P3//+t33JY
kUs)74#0qE7W-$[=3js9>Eo+%I#-Nbm:38D-)CV[0_w'$vHEqEZv,p'+'xHzHU+C'257$8
/M:v2'4t'7w./\DEo):jV-)\;f<lX+u#o!mlFhm0!tqEy)$Y'7=pLE5\+:$beS>jH9! Tl
s23>2xFhmEo!m3m 54H>2hw'#d=8qKX,7jw3e/)(Hv)*[j0
[O;Iw9e7w54#0-4\-)5I)SLf8Y%:=_k4$x#pH[*E;><632Z
aSHYw7w.w'4tFrJlF9H5L=3[ 32E>jDxFhmEo!m3m 54H>2hw'#d=8q[:$>+u(i%)t33JY
kUs;74#0qE7W-$[=3js9>Eo+%I#-Nbm:38D-)CV[0_w'$vHEqEZv,p'+/xszi]+p(257i8
/Mi12'4t'7w./\DEo):jV-)\;f<lX+u#o!mlFhm0!tqEy)$Y'7=pLE5\+:[b)*$]49! yl
s23p[xFhmEo!m3m 54H>2hw'#d=8qKX,7jwWehe)BU)*[*0
L
s;4C9E7W54#0-4\-)5i)slF8y%:=3$;/XE (9E7W54#0-4\-)5i)slF8y%:==%27!v+C2f(==5q
%UV)$)cv=38dXr:'72/Y*54 oroW'.[K(Q[:$)cv=38dXr:'72/Y*54 oroW+nXW3E/h;h;)*[J0
[jRI:38d-)cv[0_W'$VheQezV,P'7]=UP5\+:38d-)cv[0_W'$VheQezV,P'J_c27!]pc/*(==uQ
%UV+$)cv=38dXr:'72/Y*54 oroW'.[K(Q[:$)cv=38dXr:'72/Y*54 oroW8x#pH[uY*h<63$Z
aS<5w7w.w'4tFrJlF9H5L=3[ 32Eo250:-#jw7w.w'4tFrJlF9H5L=3[ 32E (9 -0<3Jp*\H9[
g3P$XfHMeO!M3M 54h>2HW'#D=8QeIg9J'+/XfHMeO!M3M 54h>2HW'#D=8Qkx,75xe( h70.pw6
>!s<yW7W.W'4TfRjLf9h5l=3[ 32eO250:-#JW(9%-9h],9! YL
s;4#9E7W54#0-4\-)5i)slF8y%:=3$;/XE (9E7W54#0-4\-)5i)slF8y%:=_K4$J++3[het33JY
kG)9X#o!mlFhm0!tqEy)$Y'7=pLE54T'B1w8X#+:ibH0>jP9! Tl
s;H39E7W54#0-4\-)5i)slF8y%:=3$;/XE (9E7W54#0-4\-)5i)slF8y%:==125!v4(i%(==Uq
%UJj$)cv=38dXr:'72/Y*54 oroW'.[K(Q[:$)cv=38dXr:'72/Y*54 oroW8x#jH'1S)<<63$Z
aS$;w7w.w'4tFrJlF9H5L=3[ 32Eo250:-#jw7w.w'4tFrJlF9H5L=3[ 32E>jDxHzX3i(2257$8
/M2/2'4t'7w./\DEo):jV-)\;f<lF61z+==12'4t'7w./\DEo):jV-)\;f<lZp73XM(hs50.PW6
>)9<#O!MLfHM0!TQeY)$y'7=Ple54t'b1W8x#O!MLfHM0!TQeY)$y'7=Ple5\+:(BhP<VI9! tL
s;H)9E7W54#0-4\-)5i)slF8y%:=3$;/XE (9E7W54#0-4\-)5i)slF8y%:==127!3LW/U(==Uq
%nuY(74#0Qe7w-$[=3JS9>eO+%i#-)*$</LzP7JWmE/v7j-)*[J0
[j5l:38d-)cv[0_W'$VheQezV,P'7]=UP5\+:38d-)cv[0_W'$VheQezV,P'+/XhZbVp(I257I8
/M2f2'4t'7w./\DEo):jV-)\;f<lF61z+==12'4t'7w./\DEo):jV-)\;f<lX+u#Hhi*V9B<63$z
aSijw7w.w'4tFrJlF9H5L=3[ 32Eo250:-#jw7w.w'4tFrJlF9H5L=3[ 32E (9 -Siv+)*\H9[
gdm$ 2'4T'7W./\deO):Jv-)\;F<Lf61Z+==12P73x('u(==uQ
y
kG)(B#o!mlFhm0!tqEi:0*;+qE :49);qEivBE=+c/2p73XWs1J(0.PW6
Z
aAJU3:38D-)CV[0_w'.')2%[w'y'#6*6w'.dP=R[g(7jwCehs7B])*[*0
L
s23W:xFhmEo!m3m 54TO=lL86-JW2x:$$+i(u/)t33JY
6
>)(<#O!MLfHM0!TQeIV#e=+C%t(I#O!MLfHM0!TQeIV#e=+C%t($#IH[VY9E<63$Z
aAJUH:38D-)CV[0_w'.d =R[g5iUJ:/x)ze]+(s257i8
q
%nut(74#0Qe7w-$[=3$3T.$t=3P3H+<5=3iU75\#+9129!VjcUV(==5Q
%nut*74#0Qe7w-$[=3$3T.$t=3P3H+<5=3iU75\#+9120!;p#[H(==5Q
%nut;74#0Qe7w-$[=3$3T.$t=3P3H+<5=3iU75\#+912s!;j>Uu(==5Q
y
kG)*X#o!mlFhm0!tqEi:0*!2qE :49);qEL/XE !=x:$$+4E21Tt33HY
kG)*=#o!mlFhm0!tqEi:0*!2qE :49);qEL/XE !=x:$J+4#$/(==5q
%nuv574#0Qe7w-$[=3$3T.$t=3P3H+<5=3iUP5\#+9120!3U3[H(==5Q
y
kG)*J#o!mlFhm0!tqKX,%#+:'bV5JvP9! +l
s23E:xFhmEo!m3m 5b>IXx:$J+,('Uyt33JY
kG)*<#o!mlFhm0!tqKX,%#+:[bTp$<632z
aAJYH:38D-)CV[0_w+Nx2:/xezej+Ws257$8
q
%nuv(74#0Qe7w-$[=3$3T.$t=3iU-#[U:/XSZxJ3P$257$8
/zuhV$)CV=38DxR:'7]6(6R*'7R0w81-w(9f-*<j,E*\H9[
gdmSF2'4T'7W./\deO2Y2I\.eOFbLzgb#+:[BE5<R39! YL
s23#/xFhmEo!m3m 54T;*$m654=<q[;57jwCehTSi<632z
0
[O;,39e7w54#0-4\-)*59]4I-)%K===h$x#pHI%:;<<632Z
aAJ]u:38D-)CV[0_w'.')20$w',z'+5 2p7YX>s%V50.P)6
>!sE;W7W.W'4TfRjLf68<tR]Lf39e '[X:$h+,3[%+T33hy
kG);H#o!mlFhm0!tqEi:0*!2qEL/5\$3912)!]+C[U(==5q
y
kG);<#o!mlFhm0!tqEi:0*!2qE :49);qEivBE=+c J$X#PhijT0=<63$z
0
[O;,)9e7w54#0-4\-)*59]4I-)D5!\23-)*;>Qiz.=yW(9*-sEVlw*\h*[
8
/zufT$)CV=38DxR:'7]6(6R*'7%67<0''7]p+-,\s>/x:$>+uCufTt33LY
6
>!sEyW7W.W'4TfRjLf68<tR]LfV8cY9YLf6YR'F=Dj;7JW3EHt0j<63$Z
0
[j],:38d-)cv[0_W'.$t=3$+cbe;ux 2'4T'7W./\deO20$W3#/3cIF25!34cS (==uQ
%n/:P74#0Qe7w-$[=3$M654tPl%WV\sp:/X)Z$ul3S257$8
/z:1H$)CV=38DxR:'7]4i-)*4]'l >%3w(9 -*=viW*\H([
gd>/%2'4T'7W./\deO20$W'.RzcQPOJ=#+:[B:9E;h9! tL
[
gd>/u2'4T'7W./\deO20$W3#/3cI%2P73x)' )T33jy
6
>!)xVW7W.W'4TfRjLf6r*'7]V_55Z9 [X:$>+3c21ET33jy
k/:074#0qE7W-$[=3$m654TpL%w/\SP:38D-)CV[0_w'.$T=R[gSB5J:sb+*e339! Vl
s2i(2xFhmEo!m3m 54Tr]lF6<Iu=BM'77jw3ehepe5)*[v0
[OV+w9e7w54#0-4\-)*!2QeI0'-'<O7h$x#pH/J+5$<632Z
aAHjL:38D-)CV[0_w'.$T=3$+CBEkUX 2p7YXp(1)00.PW6
>!)x]W7W.W'4TfRjLf6r*'7]V_55Z9 [X:$E+U)/FvT33jy
kGs7X#o!mlFhm0!tqEi\.Eo2i'J-9K23912*!Y33ij(==Uq
%n/h774#0Qe7w-$[=3$M654tPl%W/\sp:/XhZxR+m'257$8
/z: J$)CV=38DxR:'7]4i-)*4]'lu>%3w(9 -pH5uE*\H9[
gd>[u2'4T'7W./\deO20$W'.RzcQ0OJ=#+:[B:7EVp9! YL
s2i3:xFhmEo!m3m 54Tr]lF6<Iu=BM'77jw#ehy5Xv)*[*0
[OVpP9e7w54#0-4\-)*!2QeI0'-'<O7h$x#,H2*+*j<63$Z
aAH3H:38D-)CV[0_w'.$T=3$+CBEkUX 2p7YX#: )S0.PW6
>!)=uW7W.W'4TfRjLf6r*'7]V_55Z9 [X:$=++32 tT33hy
kGs7>#o!mlFhm0!tqEi\.Eo2i'J-9K239127!juM2U(==5q
%n/h;74#0Qe7w-$[=3$M654tPl%W/\sp:/XhZx-h#:257$8
/z:%:$)CV=38DxR:'7]4i-)*4]'lu>%3w(9f-7>;+3*\H([
gd>' 2'4T'7W./\deO20$W'.RzcQ0OJ=#+:SBE5<;U9! tL
s2iC'xFhmEo!m3m 54Tr]lF6<Iu=BM'77jw3e1)9eU)*[j0
[OVUm9e7w54#0-4\-)*!2QeI0'-'<O7h$x#pH/ v0j<632Z
aAH-i:38D-)CV[0_w'.$T=3$+CBEkUX 2p73X(ijJ*0.P)6
>!)bRW7W.W'4TfRjLf6r*'7]V_55Z9 [X:$>+jc[1tT33jy
kGs5$#o!mlFhm0!tqEi\.Eo2i'J-9K239127!juM(U(==5q
y
kGs5i#o!mlFhm0!tqEi\.E=+cUJ(X#+:'by5i])*[*0
L
s2iCsxFhmEo!m3m 54Tr]lL86;u)'x:$=+43' Ht33JY
6
>!)b]W7W.W'4TfRjLf6r*'7]V_75Z9 [X:$E++#S/tT33jy
kGsSX#o!mlFhm0!tqEi\.Eo2i'H-9K239127!Y,#/v(==rq
%n/)774#0Qe7w-$[=3$M654tPl W/\sp:/XEZb]j)S257I8
/z:UJ$)CV=38DxR:'7]4i-)*4][lu>%3w(9f-;ejiC*\H([
gd>Uu2'4T'7W./\deO20$W'.Rz3Q0OJ=#+:(Bv*jRh9! tL
s2iM:xFhmEo!m3m 54Tr]lF6<IP=BM'77jw3e1);>;)*[j0
[OV3P9e7w54#0-4\-)*!2QeI0'3'<O7h$x#,HUuS)I<63$Z
aAH;H:38D-)CV[0_w'.$T=3$+C=EkUX 2p7]X3u/s(0.PW6
>!)juW7W.W'4TfRjLf6r*'7]V_75Z9 [X:$=+pP[1)T33hy
kGsS>#o!mlFhm0!tqEi\.Eo2i'H-9K239127!jiM/j(==5q
%n/);74#0Qe7w-$[=3$M654tPl W/\sp:/XhZxy3m(257$8
/z:/:$)CV=38DxR:'7]4i-)*4][lu>%3w(9 -pJrHC*\H9[
gd>: 2'4T'7W./\deO20$W'.Rz3Q0OJ=#+:[B:P=Rp9! YL
s2i>'xFhmEo!m3m 54Tr]lF6<IP=BM'77jw3e1+pJ-)*[j0
[OVIm9e7w54#0-4\-)*!2QeI0'3'<O7h$x#,H'%j)I<63$Z
aAHvi:38D-)CV[0_w'.$T=3$+C=EkUX 2p73X(:veS0.P)6
>!)hRW7W.W'4TfRjLf6r*'7]V_75Z9 [X:$E++wS*ET33jy
kGs)$#o!mlFhm0!tqEi\.Eo2i'H-9K239127!j3>'h(==5q
%n/S(74#0Qe7w-$[=3$M654tPl W/\sp:/XhZ=J+m*\h9[
gd>:H2'4T'7W./\deO20$W'.Rz3Q0OJ=#+:(BE5$V,9! tL
s2i>(xFhmEo!m3m 54Tr]lF6<IP=BM'77jw3e1:9X-)*[j0
[hR+:38d-)cv[0_W'.$t=3$+c=eKux 2'4T'7W./\deO20$W3#/3c2*25!3+>/H(==uQ
%n/+774#0Qe7w-$[=3$M654tPl W/\sp:/XYZ=y+c'257I8
q
%n/+574#0Qe7w-$[=3$M654tPl WV\sp:/XjZE3+#[257$8
/>iU2'4t'7w./\DEo20$w'.rZ3qpoj=#o!mlFhm0!tqEi\.E=+cUJ(J#,h( y;><63sz
aAHri:38D-)CV[0_w'.$T=3$+C=E;UX 2p73X>$*s)0.PW6
>!)<RW7W.W'4TfRjLf6r*'7]V_75D9 [X:$=++w2u(==uQ
y
kGs0$#o!mlFhm0!tqEi\.Eo2i's-9K239127!3ipi (==5q
%:Vt$)cv=38dXr:'7]4I-)*4]:LU>%3W7W.W'4TfRjLf6r*'F=D)(b]W3E1h5x;)*[*0
[OV4e9e7w54#0-4\-)*!2QeI0'V'<O7h$x#pHSFt(I<63IZ
aAHr,:38D-)CV[0_w'.$T=3$+CHEkUX 2p7]X>:/V;0.PW6
>!)$JW7W.W'4TfRjLf6r*'7]V_)5Z9 [X:$E++c'JjT33jy
kGs9=#o!mlFhm0!tqEi\.Eo2i's-9K23912;!]+>u (==Uq
%n/Y574#0Qe7w-$[=3$M654tPl/W/\sp:/XEZx]4)(257I8
/z:j)$)CV=38DxR:'7]4i-)*4]:lu>%3w(9f-0>YP9! Tl
s2i):xFhmEo!m3m 54Tr]lF6<Ii=BM'77jw#eUeSB3)*[*0
[OVhP9e7w54#0-4\-)*!2QeI0'V'<O7h$x#,H(Ft(0.pw6
>!)$5W7W.W'4TfRjLf6r*'7]V_)5Z9 [X:$E+IwSFhT33jy
kGs9i#o!mlFhm0!tqEi\.Eo2i's-9K23912;!UiC(f(==Uq
%n/Y*74#0Qe7w-$[=3$M654tPl/W/\sp:/XEZIJjeI257I8
/z:je$)CV=38DxR:'7]4i-)*4]:lu>%3w(9 -pBvLp*\H9[
gd>$12'4T'7W./\deO20$W'.Rz>Q0OJ=#+:[B:5j-U9! YL
s2iW[xFhmEo!m3m 54Tr]lF6<Ii=BM'77jw#e%J)J;)*[*0
[OVjc9e7w54#0-4\-)*!2QeI0'V'<O7h$x#,H2%v7=<63$Z
aAHU3:38D-)CV[0_w'.$T=3$+CHEkUX 2p73X3[UyS0.P)6
>!)IVW7W.W'4TfRjLf6r*'7]V_)5Z9 [X:$E+jmU/jT33jy
kGs(<#o!mlFhm0!tqEi\.Eo2i's-9K23912*!;+((*(==Uq
%n/t974#0Qe7w-$[=3$M654tPl/W/\sp:/XEZE3UP(257I8
/z:*T$)CV=38DxR:'7]4i-)*4]:lu>%3w(9 -pB5up*\H9[
gIwSXfHMeO!M3M 54tR]Lf6<iI=bm'774#0Qe7w-$[=3$M65% qU*)77-xc'%h70.pw6
>!)I]W7W.W'4TfRjLf6r*'7]V_)5Z9 [X:$<+3)SJvT33jy
6
>!)>JW7W.W'4TfRjLf6r*'7]V_)5D9 [X:$b+,P2FvT33hy
kGs*=#o!mlFhm0!tqEi\.Eo2i's-yK239127!-L3: (==Uq
%:Hj$)cv=38dXr:'7]4I-)*4]:L >%3W7W.W'4TfRjLf6r*'F=D)5<;W#Eu+s>3)*[H0
[OVlm9e7w54#0-4\-)*!2QeI0'V'oO7h$x#pH[uh7j<63$Z
aAHYi:38D-)CV[0_w'.$T=3$+CHE;UX 2p73XC(ve(0.PW6
Z
aAHY4:38D-)CV[0_w'.$T=R[gSBUu:/xszBYiMu257i8
q
%:HY$)cv=38dXr:'7]4I-,\Sm'*h$)cv=38dXr:'7]4I-)*4][L >%3WcE1+*>3)*[*0
[hyj:38d-)cv[0_W'.$t=r[Gsbup:38d-)cv[0_W'.$t=r[GsbuU:UBE)E]j9! tL
s2iEsxFhmEo!m3m 54Tr]lL86;uW[x:$J+u3'fHt33JY
6
>S*E#O!MLfHM0!TQeI\.e=+Cuj9E#O!MLfHM0!TQeI\.eO2I'j-9k239%-s<;49! tL
sv,(9E7W54#0-4\-)*!2qIZ.J-H#9E7W54#0-4\-)*!2qEi0'3'<o7H$e+4M2/Tt33LY
k/e774#0qE7W-$[=3$m65% Qu%y;74#0qE7W-$[=3$m65% Qu%Tp7vX32%e(0.PW6
>!)E-W7W.W'4TfRjLf6r*'F=D)5$]W(9/-5<V49! tL
[
gI#UXfHMeO!M3M 54tR]Ll86;U)[XfHMeO!M3M 54tR]Lf6<iU=%m'77]x3:/S70.pe6
>S;h#O!MLfHM0!TQeI\.e=+Cuj9=#O!MLfHM0!TQeI\.e=+Cuj9b#3H(HY9$<63$Z
aAH]4:38D-)CV[0_w'.$T=R[gSB5P:/xJz<YPM*\H([
8
/>(j2'4t'7w./\DEo20$w3#/3Ci 2'4t'7w./\DEo20$w'.rZ>qpoj=#uh[/)7><63$z
a)eUw7w.w'4tFrJlF6R*'f=d)5<3w7w.w'4tFrJlF6R*'f=d)5<-w>e :)=r)*[*0
[OV,e9e7w54#0-4\-)*!2Qiz.j-43912s!]I>UV(==uQ
y
k/e;74#0qE7W-$[=3$m65% Qu%))74#0qE7W-$[=3$m65% Qu%)S7vX321T00.PW6
>!0xJW7W.W'4TfRjLf6r*'F=D)5jVW(9u-;xVpc*\h([
8
/zi1H$)CV=38DxR:'7]4i-,\sM'UT$X#uh[v:)J<63$z
0
[OR+c9e7w54#0-4\-)*!2Qiz.ju3)912)!5I(:/(==uQ
y
kv:S74#0qE7W-$[=3$m65% Qu*)074#0qE7W-$[=3$m65% Qu*)97vX3/*s)0.PW6
>!0xVW7W.W'4TfRjLf6r*'F=D)(jRW(9V-9xRI>*\h([
8
/zi1+$)CV=38DxR:'7]4i-,\sM'fe$X#3h$ y0B<63$z
0
[OR+)9e7w54#0-4\-)*!2Qiz.j-l)9125!y3m'u(==uQ
y
kG+pi#o!mlFhm0!tqEi\.E=+cUJ;H#+:ub)(<]i9! Tl
[
gdP/H2'4T'7W./\deO20$W3#/3w:H2P7Vx)/uS*0.pw6
Z
aA<j,:38D-)CV[0_w'.$T=R[gSiv4:/xTzBUup'257i8
q
%I :$)cv=38dXr:'7]4I-,\Sm$/Y$)cv=38dXr:'7]4I-,\Sm$/+$h+3P2*)T33jy
kG+7=#o!mlFhm0!tqEi\.E=+cUT)$#+:ib)($vJ9! Tl
[
gdP[%2'4T'7W./\deO20$W3#/3cSu2P7Rx((Vv90.pw6
Z
a0=;w7w.w'4tFrJlF6R*'f=d)5>vw7w.w'4tFrJlF6R*'f=d)5>;w>e1)*B<63$z
aA<3i:38D-)CV[0_w'.$T=R[gSBYi:/x)zB3P#[257i8
q
%nVh074#0Qe7w-$[=3$M65% qU%E77JWmE1:PxV)*[*0
L
srP)9E7W54#0-4\-)*!2qIZ.J-,C9E7W54#0-4\-)*!2qIZ.J-,39/-pejuM*\H([
gdP[*2'4T'7W./\deO20$W3#/3c(%2P7Vx#S/v90.pw6
Z
aA<3L:38D-)CV[0_w'.$T=R[gSJju:/xszX]4>i257i8
q
%I E$)cv=38dXr:'7]4I-,\SmU1:$)cv=38dXr:'7]4I-,\Sm'FE$h++#/%)T33jy
kG+5X#o!mlFhm0!tqEi\.E=+cU)pX#+:ubH(H539! Tl
[
gdP' 2'4T'7W./\deO20$W3#/3m$F2P7;xm(%j(0.pw6
Z
aA<-u:38D-)CV[0_w'.$T=R[gSJY3:/xJz>rip'257i8
q
%nVjs74#0Qe7w-$[=3$M65% qUut77JWcE%v;x;)*[*0
L
s24C:xFhmEo!m3m 54Tr]lL86;3Wix:$J+H)ujHt33JY
6
>!0bRW7W.W'4TfRjLf6r*'F=D)s$;W(9%-sb3l)*\h([
8
/zi%y$)CV=38DxR:'7]4i-,\sM$vy$X#ih(*e;H<63$z
0
[ORUw9e7w54#0-4\-)*!2Qiz.ju4m9120!y+w(/(==uQ
y
kvJ*74#0qE7W-$[=3$m65% Qu*+)74#0qE7W-$[=3$m65% Qu*+S7vXCsv);0.PW6
>!0b]W7W.W'4TfRjLf6r*'F=D)(<VW(9V-(bR4P*\h([
8
/ziU:$)CV=38DxR:'7]4i-,\sMuhJ$X#Ph:/Vpe<63$z
0
[OR339e7w54#0-4\-)*!2Qiz.j;l)912s!VI32H(==uQ
y
kv)574#0qE7W-$[=3$m65% QuUV074#0qE7W-$[=3$m65% QuUV97vX((1H90.PW6
>!0j;W7W.W'4TfRjLf6r*'F=D)s>RW(9u-sb3,w*\h([
8
/ziUs$)CV=38DxR:'7]4i-,\sMu*V$X#ih'hJ)J<63$z
0
[<;4:38d-)cv[0_W'.$t=r[Gsjuj:38d-)cv[0_W'.$t=r[Gsjul::B:;x3h9! tL
s24M2xFhmEo!m3m 54Tr]lL86;3W$x:$B+L#2*et33JY
6
>!0juW7W.W'4TfRjLf6r*'F=D)s$5W(9 -s>V3m*\h([
8
/ziUV$)CV=38DxR:'7]4i-,\sMujT$X#uh( V;=<63$z
0
[OR3#9e7w54#0-4\-)*!2Qiz.j;j(912s!]l#[/(==uQ
y
kvsp74#0qE7W-$[=3$m65% QuUy;74#0qE7W-$[=3$m65% QuUTp7;X#i st33JY
kG+)=#o!mlFhm0!tqEi\.E=+cU)9e#+:'bV(XUi9! Tl
[
gdP:%2'4T'7W./\deO20$W3#/3mIV2P73xwU%t)0.pw6
Z
aA<v3:38D-)CV[0_w'.$T=R[gSJ5u:/xyz<;uE:257i8
q
%I/S$)cv=38dXr:'7]4I-,\SmUJh$)cv=38dXr:'7]4I-,\SmUJj$h+3P2JYT33jy
kG+)<#o!mlFhm0!tqEi\.E=+cU)9=#+:2bs)>5i9! Tl
[
g4>2XfHMeO!M3M 54h>2HW88TtoM2/$)cv=38dXr:'72/Y*5\K%OXSZj3hc*\h([
g4>$XfHMeO!M3M 54h>2HW88TtoM2/$)cv=38dXr:'72/Y*5\K%OXhZ>5332257I8
/zi/V$)CV=38DxR:'72/y*5\50]pDt-#+::bs(H-)*[j0
[ORI#9e7w54#0-4\-)5I)SLz:M*;0*32P73xwU%v;0.p)6
>!0<JW7W.W'4TfRjLf9h5l==6d6YT)[9127!Jh(:J(==5Q
y
6
Z
0
L
[
8
q
y
6
Z
0
L
[
8
q
y
6
>!9jJW7W.W'UwtRQe!9be (9125!J3mSF(==uQ
y
kGyS=#o!mlFj%%#+/lFAXE (912)!r+#/*(==Yq
y
kGySB#o!mlFj%%#+/lFp5b>p%32p7-X($ :(0.P)6
>!9j;W7W.W'%s=!=1W'xe>JIP/$x#pH'1E*<<632Z
aA$;i:38D-)S2fw[:-)j'j_v x7jw3eU)SHv)*[j0
[O53P9e7w542 r8zP54+=_k+V-#+:IBY;EyU9! YL
[
gd)UJ2'4T'7x7lH#J'7/Ll86RW(9%-(ERhc*\h*[
8
/z2UT$)CV=38DxR:'7]6(6R*'7%67<0''7R0J-#C :/x)z<;,3*\H9[
gd)UH2'4T'7W./\deO2Y2I\.eOoY8pT8eOFb%W84\W(9J-)b;hP*\h9[
gd)UF2'4T'7W./\deO2Y2I\.eOoY8pT8eOFb%W84\W(9V-shVhP*\h9[
8
/z2/:$)CV=37'34\+=31w+N5;[912)!-ipsh(==5q
%2/h$)cv=37'34\+=31W+n5;[9e7w542 r8zP54+=_k+V-#UH'1E5h<632Z
aA$vu:38D-)S2fw[:-)j'j_j x7jwMe1H0Xr)*[j0
[O5Im9e7w542 r8zP54+=_kYV-#+:UBS(I;U9! YL
s2H>:xFhmEo XI78XEo(qKX9y0w(9U-p$v4C*\H9[
gd):V2'4T'7x7lH#J'7/Lx+$Df:/XjZjJl32257$8
/z2/y$)CV=37'34\+=31w+N5;[9127!jPM'v(==5q
%nJS(74#0Qe'J,c (Qe:-nBho-X:$=+jw'uYT33hy
kjs*74#0qE'j,C (qE:-NbHO-xFhmEo XI78XEo(qKX0y0wCeh+)XY)*[*0